  
       XFOIL         Version 6.99
  
 Calculated polar for: NACA 4412                                       
  
 1 1 Reynolds number fixed          Mach number fixed         
  
 xtrf =   1.000 (top)        1.000 (bottom)  
 Mach =   0.000     Re =     0.120 e 6     Ncrit =   9.000
  
   alpha    CL        CD       CDp       CM     Top_Xtr  Bot_Xtr
  ------ -------- --------- --------- -------- -------- --------
  -5.000  -0.2715   0.04866   0.04360  -0.0734   0.9540   0.1599
  -4.500  -0.1891   0.02764   0.01940  -0.0841   0.9460   0.0980
  -4.000  -0.1134   0.02528   0.01666  -0.0883   0.9327   0.1123
  -3.500  -0.0378   0.02328   0.01467  -0.0925   0.9196   0.1327
  -2.500   0.1266   0.02032   0.01183  -0.1022   0.8964   0.2142
  -2.000   0.1972   0.01907   0.01085  -0.1046   0.8812   0.2842
  -1.500   0.2636   0.01760   0.00994  -0.1061   0.8654   0.3992
  -1.000   0.3377   0.01535   0.00946  -0.1066   0.8507   0.9751
  -0.500   0.4098   0.01491   0.00858  -0.1090   0.8326   1.0000
   0.000   0.4655   0.01479   0.00815  -0.1082   0.8097   1.0000
   0.500   0.5228   0.01469   0.00778  -0.1077   0.7874   1.0000
   1.000   0.5818   0.01461   0.00743  -0.1075   0.7666   1.0000
   1.500   0.6330   0.01489   0.00754  -0.1062   0.7416   1.0000
   2.000   0.6886   0.01510   0.00755  -0.1056   0.7202   1.0000
   2.500   0.7423   0.01546   0.00777  -0.1048   0.6990   1.0000
   3.000   0.7941   0.01594   0.00817  -0.1039   0.6775   1.0000
   3.500   0.8472   0.01642   0.00856  -0.1031   0.6577   1.0000
   4.000   0.9007   0.01693   0.00901  -0.1025   0.6389   1.0000
   4.500   0.9545   0.01748   0.00951  -0.1019   0.6204   1.0000
   5.000   1.0040   0.01816   0.01025  -0.1007   0.6006   1.0000
