  
       XFOIL         Version 6.99
  
 Calculated polar for: NACA 4412                                       
  
 1 1 Reynolds number fixed          Mach number fixed         
  
 xtrf =   1.000 (top)        1.000 (bottom)  
 Mach =   0.000     Re =     0.040 e 6     Ncrit =   9.000  9.000
  
   alpha    CL        CD       CDp       CM     Top_Xtr  Bot_Xtr  Top_Itr  Bot_Itr
  ------ -------- --------- --------- -------- -------- -------- -------- --------
 -19.250  -0.3505   0.20343   0.19179  -0.0177   1.0000   0.1144   1.0000 106.1946
 -19.000  -0.3438   0.20052   0.18810  -0.0184   1.0000   0.1172   1.0000 106.3862
 -18.750  -0.3391   0.19849   0.18473  -0.0193   1.0000   0.1201   1.0000 106.5824
 -18.500  -0.3364   0.19721   0.18165  -0.0204   1.0000   0.1230   1.0000 106.7779
 -18.250  -0.3375   0.19763   0.17924  -0.0217   1.0000   0.1250   1.0000 106.9195
 -18.000  -0.3435   0.20021   0.17786  -0.0230   1.0000   0.1259   1.0000 106.9812
 -17.750  -0.3322   0.19408   0.17319  -0.0237   1.0000   0.1275   1.0000 107.0819
 -17.500  -0.3205   0.18904   0.16889  -0.0239   1.0000   0.1308   1.0000 107.2997
 -17.250  -0.3152   0.18684   0.16571  -0.0246   1.0000   0.1346   1.0000 107.5474
 -17.000  -0.3137   0.18598   0.16312  -0.0255   1.0000   0.1384   1.0000 107.7969
 -16.750  -0.3192   0.18783   0.16177  -0.0267   1.0000   0.1407   1.0000 107.9458
 -16.500  -0.3313   0.19221   0.16184  -0.0278   1.0000   0.1414   1.0000 107.9967
 -16.250  -0.3040   0.18030   0.15461  -0.0278   1.0000   0.1454   1.0000 108.2458
 -16.000  -0.2980   0.17783   0.15151  -0.0282   1.0000   0.1492   1.0000 108.4902
 -15.750  -0.2964   0.17675   0.14913  -0.0289   1.0000   0.1531   1.0000 108.7395
 -15.500  -0.3022   0.17818   0.14804  -0.0298   1.0000   0.1560   1.0000 108.9207
 -15.250  -0.3153   0.18192   0.14826  -0.0307   1.0000   0.1570   1.0000 108.9888
 -15.000  -0.2918   0.17235   0.14208  -0.0308   1.0000   0.1606   1.0000 109.2112
 -14.750  -0.2849   0.16957   0.13904  -0.0309   1.0000   0.1656   1.0000 109.5200
 -14.250  -0.2996   0.17146   0.13747  -0.0324   1.0000   0.1727   1.0000 109.9667
 -14.000  -0.2841   0.16511   0.13282  -0.0325   1.0000   0.1762   1.0000 110.1829
 -13.750  -0.2758   0.16183   0.12967  -0.0325   1.0000   0.1818   1.0000 110.5242
 -13.500  -0.2788   0.16104   0.12822  -0.0330   1.0000   0.1868   1.0000 110.8325
 -13.250  -0.2943   0.16285   0.12857  -0.0337   1.0000   0.1891   1.0000 110.9731
 -13.000  -0.2763   0.15625   0.12376  -0.0336   1.0000   0.1928   1.0000 111.1957
 -12.750  -0.2684   0.15301   0.12074  -0.0335   1.0000   0.1987   1.0000 111.5529
 -12.500  -0.2753   0.15251   0.11974  -0.0339   1.0000   0.2042   1.0000 111.8859
 -12.250  -0.2956   0.15436   0.12039  -0.0346   1.0000   0.2060   1.0000 111.9962
 -12.000  -0.2632   0.14577   0.11411  -0.0337   1.0000   0.2144   1.0000 112.4995
 -11.750  -0.2706   0.14505   0.11308  -0.0340   1.0000   0.2209   1.0000 112.8888
 -11.500  -0.2752   0.14307   0.11150  -0.0342   1.0000   0.2241   1.0000 113.0805
 -11.250  -0.2585   0.13825   0.10753  -0.0334   1.0000   0.2323   1.0000 113.5649
 -11.000  -0.2705   0.13792   0.10689  -0.0335   1.0000   0.2384   1.0000 113.9271
 -10.750  -0.2635   0.13389   0.10395  -0.0332   1.0000   0.2426   1.0000 114.1767
 -10.500  -0.2562   0.13071   0.10116  -0.0325   1.0000   0.2511   1.0000 114.6790
 -10.250  -0.2774   0.13135   0.10132  -0.0324   1.0000   0.2562   1.0000 114.9772
 -10.000  -0.2536   0.12535   0.09684  -0.0313   1.0000   0.2658   1.0000 115.5427
  -9.750  -0.2719   0.12536   0.09663  -0.0307   1.0000   0.2728   1.0000 115.9566
  -9.500  -0.2532   0.12023   0.09278  -0.0296   1.0000   0.2823   1.0000 116.5118
  -9.250  -0.2730   0.12024   0.09264  -0.0286   1.0000   0.2899   1.0000 116.9598
  -9.000  -0.2546   0.11521   0.08887  -0.0274   1.0000   0.2989   1.0000 117.4880
  -8.750  -0.2764   0.11526   0.08883  -0.0260   1.0000   0.3070   1.0000 117.9629
  -8.500  -0.2579   0.11041   0.08518  -0.0246   1.0000   0.3172   1.0000 118.5627
  -8.250  -0.2871   0.11104   0.08567  -0.0225   1.0000   0.3244   1.0000 118.9860
  -8.000  -0.2707   0.10664   0.08235  -0.0208   1.0000   0.3389   1.0000 119.8440
  -7.750  -0.2662   0.10354   0.08003  -0.0189   1.0000   0.3507   1.0000 120.5443
  -7.500  -0.2998   0.10433   0.08075  -0.0157   1.0000   0.3583   1.0000 120.9920
  -7.250  -0.2915   0.10091   0.07817  -0.0136   1.0000   0.3741   1.0000 121.9315
  -7.000  -0.2842   0.09762   0.07567  -0.0115   1.0000   0.3884   1.0000 122.7787
  -6.750  -0.2847   0.09505   0.07376  -0.0092   1.0000   0.4011   1.0000 123.5299
  -6.500  -0.2905   0.09302   0.07229  -0.0063   1.0000   0.4161   1.0000 124.4132
  -6.250  -0.2942   0.09097   0.07070  -0.0033   1.0000   0.4343   1.0000 125.4867
  -6.000  -0.2999   0.08915   0.06928   0.0000   1.0000   0.4548   1.0000 126.6843
  -5.750  -0.3137   0.08796   0.06839   0.0041   1.0000   0.4752   1.0000 127.8792
  -5.500  -0.3329   0.08713   0.06780   0.0087   1.0000   0.4941   1.0000 128.9839
  -5.250  -0.3155   0.08360   0.06484   0.0108   1.0000   0.5266   1.0000 130.8796
  -5.000  -0.3064   0.08080   0.06244   0.0135   1.0000   0.5594   1.0000 132.7964
  -4.250  -0.1477   0.06332   0.05238   0.0052   1.0000   0.8644   1.0000 150.7392
  -4.000  -0.2066   0.06485   0.05408   0.0155   1.0000   0.8209   1.0000 148.1757
  -3.750  -0.2809   0.06662   0.05601   0.0256   1.0000   0.7559   1.0000 144.3513
  -3.000  -0.2630   0.04321   0.02856  -0.0489   1.0000   0.2323   1.0000 113.5662
  -2.750  -0.2340   0.04107   0.02592  -0.0511   1.0000   0.2409   1.0000 114.0752
  -2.500  -0.2111   0.03980   0.02467  -0.0515   1.0000   0.2521   1.0000 114.7397
  -2.250  -0.1874   0.03867   0.02351  -0.0521   1.0000   0.2658   1.0000 115.5453
  -2.000  -0.1635   0.03773   0.02245  -0.0527   1.0000   0.2818   1.0000 116.4812
  -1.750  -0.1400   0.03704   0.02167  -0.0532   1.0000   0.3021   1.0000 117.6735
  -1.500  -0.1164   0.03649   0.02100  -0.0537   1.0000   0.3262   1.0000 119.0925
  -1.250  -0.0935   0.03611   0.02063  -0.0539   1.0000   0.3552   1.0000 120.8098
  -1.000  -0.0691   0.03583   0.02036  -0.0544   1.0000   0.3932   1.0000 123.0627
  -0.750  -0.0446   0.03558   0.02032  -0.0548   1.0000   0.4440   1.0000 126.0510
  -0.500  -0.0196   0.03525   0.02048  -0.0550   1.0000   0.5213   1.0000 130.5730
  -0.250   0.0018   0.03342   0.02051  -0.0519   0.9938   0.8919   1.7716 152.3663
   0.000   0.0579   0.03483   0.02072  -0.0600   0.9787   1.0000   3.1847 160.0000
   0.250   0.1007   0.03628   0.02171  -0.0644   0.9659   1.0000   4.1741 160.0000
   0.500   0.1422   0.03770   0.02278  -0.0685   0.9532   1.0000   5.0792 160.0000
   0.750   0.1772   0.03899   0.02381  -0.0713   0.9410   1.0000   5.8944 160.0000
   1.000   0.2059   0.04017   0.02479  -0.0731   0.9289   1.0000   6.6842 160.0000
   1.250   0.2363   0.04145   0.02584  -0.0751   0.9173   1.0000   7.4229 160.0000
   1.500   0.2723   0.04285   0.02700  -0.0780   0.9063   1.0000   8.1252 160.0000
   1.750   0.2997   0.04410   0.02808  -0.0794   0.8950   1.0000   8.8362 160.0000
   2.000   0.3210   0.04537   0.02917  -0.0799   0.8846   1.0000   9.4875 160.0000
   2.250   0.3534   0.04677   0.03036  -0.0820   0.8739   1.0000  10.1579 160.0000
   2.500   0.3762   0.04811   0.03155  -0.0828   0.8637   1.0000  10.7928 160.0000
   2.750   0.3961   0.04950   0.03276  -0.0830   0.8537   1.0000  11.4167 160.0000
   3.000   0.4310   0.05100   0.03403  -0.0854   0.8434   1.0000  12.0599 160.0000
   3.250   0.4416   0.05244   0.03535  -0.0845   0.8341   1.0000  12.6396 160.0000
   3.500   0.4657   0.05399   0.03668  -0.0853   0.8241   1.0000  13.2599 160.0000
   3.750   0.4904   0.05556   0.03809  -0.0863   0.8145   1.0000  13.8555 160.0000
   4.000   0.5025   0.05721   0.03956  -0.0857   0.8052   1.0000  14.4329 160.0000
   4.250   0.5352   0.05888   0.04097  -0.0876   0.7950   1.0000  15.0626 160.0000
   4.500   0.5398   0.06066   0.04264  -0.0862   0.7865   1.0000  15.5944 160.0000
   4.750   0.5633   0.06246   0.04419  -0.0870   0.7767   1.0000  16.1989 160.0000
   5.000   0.5790   0.06430   0.04589  -0.0870   0.7674   1.0000  16.7752 160.0000
   5.250   0.5919   0.06630   0.04765  -0.0867   0.7585   1.0000  17.3286 160.0000
   5.500   0.6241   0.06811   0.04917  -0.0883   0.7469   1.0000  18.0425 160.0000
   5.750   0.6201   0.07040   0.05137  -0.0866   0.7402   1.0000  18.4583 160.0000
   6.000   0.6452   0.07241   0.05308  -0.0875   0.7290   1.0000  19.1488 160.0000
   6.250   0.6484   0.07476   0.05532  -0.0866   0.7216   1.0000  19.6066 160.0000
   6.500   0.6663   0.07699   0.05728  -0.0869   0.7112   1.0000  20.2486 160.0000
   6.750   0.6928   0.07902   0.05898  -0.0877   0.6978   1.0000  21.0752 160.0000
   7.000   0.6866   0.08190   0.06179  -0.0864   0.6936   1.0000  21.3385 160.0000
   7.250   0.7077   0.08410   0.06369  -0.0868   0.6799   1.0000  22.1819 160.0000
   7.500   0.7054   0.08717   0.06667  -0.0862   0.6763   1.0000  22.4041 160.0000
   7.750   0.7228   0.08952   0.06874  -0.0863   0.6621   1.0000  23.2778 160.0000
   8.000   0.7220   0.09291   0.07202  -0.0861   0.6604   1.0000  23.3833 160.0000
   8.250   0.7230   0.09661   0.07560  -0.0865   0.6621   1.0000  23.2803 160.0000
   8.500   0.7400   0.09967   0.07843  -0.0873   0.6523   1.0000  23.8857 160.0000
   8.750   0.7509   0.10362   0.08201  -0.0883   0.6502   1.0000  24.0164 160.0000
   9.000   0.8007   0.10143   0.07928  -0.0850   0.5836   1.0000  28.1225 160.0000
   9.250   0.7900   0.10529   0.08326  -0.0846   0.5785   1.0000  28.4326 160.0000
   9.500   0.7810   0.11053   0.08866  -0.0859   0.5895   1.0000  27.7546 160.0000
   9.750   0.7888   0.11478   0.09275  -0.0870   0.5872   1.0000  27.8983 160.0000
  10.000   0.8616   0.10959   0.08631  -0.0812   0.5023   1.0000  33.1421 160.0000
  10.250   0.8664   0.11235   0.08897  -0.0803   0.4845   1.0000  34.2426 160.0000
  10.500   0.8730   0.11483   0.09135  -0.0793   0.4646   1.0000  35.4776 160.0000
  11.000   0.9053   0.11814   0.09403  -0.0763   0.4190   1.0000  38.3143 160.0000
  11.250   0.9402   0.11720   0.09236  -0.0733   0.3907   1.0000  40.1043 160.0000
  11.500   0.9379   0.12078   0.09602  -0.0728   0.3736   1.0000  41.2054 160.0000
  11.750   0.9379   0.12411   0.09946  -0.0723   0.3559   1.0000  42.3509 160.0000
  12.000   0.9728   0.12234   0.09682  -0.0684   0.3289   1.0000  44.1022 160.0000
  12.250   0.9728   0.12599   0.10057  -0.0681   0.3133   1.0000  45.1249 160.0000
  12.750   0.9501   0.13764   0.11385  -0.0711   0.2927   1.0000  46.4725 160.0000
  13.000   0.9537   0.14131   0.11793  -0.0711   0.2798   1.0000  47.3228 160.0000
  13.250   0.9621   0.14445   0.12127  -0.0708   0.2671   1.0000  48.1698 160.0000
  13.500   0.9470   0.15176   0.13061  -0.0741   0.2647   1.0000  48.3277 160.0000
  13.750   0.9397   0.15787   0.13866  -0.0767   0.2618   1.0000  48.5173 160.0000
  14.000   0.9336   0.16426   0.14723  -0.0797   0.2633   1.0000  48.4180 160.0000
  14.250   0.9323   0.17026   0.15524  -0.0823   0.2661   1.0000  48.2316 160.0000
