  
       XFOIL         Version 6.99
  
 Calculated polar for: NACA 4412                                       
  
 1 1 Reynolds number fixed          Mach number fixed         
  
 xtrf =   1.000 (top)        1.000 (bottom)  
 Mach =   0.000     Re =     3.000 e 6     Ncrit =   9.000
  
   alpha    CL        CD       CDp       CM     Top_Xtr  Bot_Xtr
  ------ -------- --------- --------- -------- -------- --------
   0.000   0.4750   0.00595   0.00094  -0.1014   0.5249   0.2579
  -0.250   0.4467   0.00593   0.00092  -0.1014   0.5358   0.2426
  -0.500   0.4183   0.00592   0.00091  -0.1013   0.5466   0.2261
  -0.750   0.3898   0.00594   0.00090  -0.1012   0.5570   0.2043
  -1.000   0.3616   0.00597   0.00089  -0.1012   0.5693   0.1770
  -1.250   0.3334   0.00598   0.00089  -0.1011   0.5821   0.1573
  -1.500   0.3050   0.00600   0.00091  -0.1011   0.5945   0.1403
  -1.750   0.2767   0.00602   0.00092  -0.1010   0.6077   0.1254
  -2.250   0.2199   0.00608   0.00098  -0.1009   0.6339   0.1000
  -2.500   0.1916   0.00611   0.00101  -0.1009   0.6472   0.0906
  -2.750   0.1631   0.00612   0.00105  -0.1008   0.6596   0.0845
  -3.000   0.1346   0.00617   0.00110  -0.1008   0.6717   0.0762
  -3.250   0.1060   0.00619   0.00115  -0.1007   0.6840   0.0721
  -3.500   0.0777   0.00624   0.00121  -0.1007   0.6965   0.0651
  -3.750   0.0492   0.00630   0.00127  -0.1006   0.7079   0.0586
  -4.000   0.0207   0.00638   0.00135  -0.1006   0.7188   0.0513
  -4.250  -0.0076   0.00646   0.00144  -0.1005   0.7312   0.0443
  -4.500  -0.0359   0.00654   0.00154  -0.1005   0.7432   0.0396
  -4.750  -0.0642   0.00665   0.00166  -0.1005   0.7545   0.0355
  -5.000  -0.0927   0.00672   0.00176  -0.1005   0.7661   0.0345
  -5.250  -0.1210   0.00679   0.00187  -0.1005   0.7787   0.0331
  -5.500  -0.1492   0.00689   0.00200  -0.1005   0.7898   0.0317
  -5.750  -0.1775   0.00704   0.00219  -0.1005   0.8009   0.0300
  -6.000  -0.2059   0.00711   0.00230  -0.1005   0.8123   0.0296
  -6.250  -0.2341   0.00720   0.00243  -0.1005   0.8230   0.0291
  -6.500  -0.2625   0.00731   0.00258  -0.1005   0.8329   0.0285
  -6.750  -0.2907   0.00742   0.00273  -0.1005   0.8433   0.0278
  -7.000  -0.3188   0.00757   0.00290  -0.1005   0.8521   0.0269
  -7.250  -0.3468   0.00778   0.00315  -0.1005   0.8610   0.0258
  -7.500  -0.3747   0.00796   0.00339  -0.1006   0.8695   0.0253
  -7.750  -0.4030   0.00809   0.00354  -0.1006   0.8774   0.0251
  -8.000  -0.4311   0.00821   0.00369  -0.1006   0.8850   0.0247
  -8.250  -0.4592   0.00836   0.00388  -0.1006   0.8922   0.0242
  -8.500  -0.4871   0.00852   0.00407  -0.1007   0.8988   0.0237
  -8.750  -0.5150   0.00869   0.00426  -0.1007   0.9057   0.0232
  -9.000  -0.5429   0.00891   0.00449  -0.1007   0.9112   0.0225
  -9.250  -0.5697   0.00923   0.00487  -0.1009   0.9177   0.0216
  -9.500  -0.5974   0.00944   0.00511  -0.1010   0.9234   0.0213
  -9.750  -0.6252   0.00961   0.00531  -0.1010   0.9283   0.0211
 -10.000  -0.6525   0.00979   0.00552  -0.1012   0.9340   0.0208
 -10.250  -0.6800   0.00998   0.00573  -0.1013   0.9396   0.0203
 -10.500  -0.7071   0.01018   0.00595  -0.1014   0.9453   0.0199
 -10.750  -0.7336   0.01040   0.00620  -0.1017   0.9513   0.0194
 -11.000  -0.7602   0.01069   0.00650  -0.1019   0.9558   0.0188
 -11.250  -0.7859   0.01110   0.00696  -0.1022   0.9602   0.0180
 -11.500  -0.8122   0.01135   0.00724  -0.1025   0.9643   0.0178
 -11.750  -0.8385   0.01159   0.00750  -0.1028   0.9680   0.0175
 -12.000  -0.8647   0.01184   0.00778  -0.1030   0.9713   0.0172
 -12.250  -0.8912   0.01211   0.00808  -0.1032   0.9747   0.0168
 -12.500  -0.9170   0.01241   0.00839  -0.1035   0.9782   0.0164
 -12.750  -0.9420   0.01275   0.00873  -0.1039   0.9817   0.0158
 -13.000  -0.9681   0.01321   0.00922  -0.1040   0.9843   0.0151
 -13.250  -0.9963   0.01365   0.00971  -0.1036   0.9862   0.0147
 -13.500  -1.0246   0.01401   0.01009  -0.1032   0.9881   0.0145
 -13.750  -1.0531   0.01441   0.01052  -0.1027   0.9897   0.0142
 -14.000  -1.0814   0.01484   0.01099  -0.1023   0.9913   0.0138
 -14.250  -1.1091   0.01533   0.01150  -0.1019   0.9928   0.0134
 -14.500  -1.1367   0.01589   0.01208  -0.1014   0.9940   0.0129
 -14.750  -1.1655   0.01663   0.01286  -0.1004   0.9945   0.0123
 -15.000  -1.1943   0.01731   0.01360  -0.0994   0.9950   0.0120
 -15.250  -1.2232   0.01787   0.01420  -0.0986   0.9956   0.0118
 -15.500  -1.2514   0.01849   0.01487  -0.0978   0.9963   0.0116
 -15.750  -1.2787   0.01917   0.01560  -0.0970   0.9970   0.0114
 -16.000  -1.3051   0.01993   0.01641  -0.0963   0.9979   0.0111
 -16.250  -1.3305   0.02078   0.01730  -0.0956   0.9987   0.0108
 -16.500  -1.3546   0.02177   0.01835  -0.0949   0.9995   0.0105
 -16.750  -1.3737   0.02293   0.01957  -0.0949   1.0000   0.0101
 -17.000  -1.3746   0.02401   0.02073  -0.0982   1.0000   0.0098
 -17.250  -1.3763   0.02518   0.02199  -0.1011   1.0000   0.0096
 -17.500  -1.3828   0.02622   0.02309  -0.1030   1.0000   0.0096
 -17.750  -1.3855   0.02748   0.02442  -0.1049   1.0000   0.0095
 -18.000  -1.3811   0.02943   0.02647  -0.1060   1.0000   0.0094
 -18.250  -1.3684   0.03373   0.03092  -0.1026   1.0000   0.0094
 -18.500  -0.8193   0.13193   0.13043  -0.0302   1.0000   0.0114
 -18.750  -0.7903   0.14177   0.14034  -0.0246   1.0000   0.0112
 -19.000  -0.7669   0.15096   0.14960  -0.0194   1.0000   0.0110
 -19.250  -0.7551   0.15781   0.15648  -0.0156   1.0000   0.0107
 -19.500  -0.7371   0.16647   0.16517  -0.0107   1.0000   0.0102
 -19.750  -0.7239   0.17439   0.17313  -0.0062   1.0000   0.0096
 -20.000  -0.3798   0.18182   0.18084  -0.0172   1.0000   0.0059
