  
       XFOIL         Version 6.99
  
 Calculated polar for: NACA 4412                                       
  
 1 1 Reynolds number fixed          Mach number fixed         
  
 xtrf =   1.000 (top)        1.000 (bottom)  
 Mach =   0.000     Re =     0.160 e 6     Ncrit =   9.000
  
   alpha    CL        CD       CDp       CM     Top_Xtr  Bot_Xtr
  ------ -------- --------- --------- -------- -------- --------
 -20.000  -0.3519   0.19760   0.19350  -0.0185   1.0000   0.0342
 -19.750  -0.3408   0.19313   0.18902  -0.0187   1.0000   0.0346
 -19.500  -0.3342   0.19065   0.18653  -0.0194   1.0000   0.0352
 -19.250  -0.3286   0.18846   0.18434  -0.0204   1.0000   0.0359
 -19.000  -0.3235   0.18632   0.18220  -0.0214   1.0000   0.0367
 -18.750  -0.3187   0.18418   0.18005  -0.0225   1.0000   0.0377
 -18.500  -0.3146   0.18210   0.17797  -0.0237   1.0000   0.0388
 -18.250  -0.3133   0.18059   0.17645  -0.0254   1.0000   0.0396
 -18.000  -0.3176   0.18055   0.17641  -0.0276   1.0000   0.0399
 -17.500  -0.2986   0.17342   0.16929  -0.0280   1.0000   0.0411
 -17.250  -0.2928   0.17135   0.16721  -0.0287   1.0000   0.0422
 -17.000  -0.2881   0.16935   0.16522  -0.0296   1.0000   0.0434
 -16.750  -0.2843   0.16739   0.16325  -0.0306   1.0000   0.0447
 -16.500  -0.2831   0.16580   0.16166  -0.0319   1.0000   0.0459
 -16.250  -0.2899   0.16596   0.16182  -0.0341   1.0000   0.0465
 -16.000  -0.3011   0.16711   0.16298  -0.0361   1.0000   0.0467
 -15.500  -0.2692   0.15733   0.15320  -0.0349   1.0000   0.0482
 -15.250  -0.2646   0.15544   0.15131  -0.0353   1.0000   0.0493
 -15.000  -0.2614   0.15365   0.14953  -0.0359   1.0000   0.0506
 -14.750  -0.2599   0.15202   0.14790  -0.0366   1.0000   0.0522
 -14.500  -0.2678   0.15193   0.14780  -0.0383   1.0000   0.0539
 -14.250  -0.2849   0.15303   0.14892  -0.0406   1.0000   0.0543
 -14.000  -0.2674   0.14736   0.14326  -0.0396   1.0000   0.0551
 -13.750  -0.2573   0.14448   0.14038  -0.0390   1.0000   0.0561
 -13.500  -0.2525   0.14229   0.13820  -0.0391   1.0000   0.0573
 -13.250  -0.2495   0.14012   0.13604  -0.0393   1.0000   0.0588
 -13.000  -0.2484   0.13791   0.13385  -0.0397   1.0000   0.0606
 -12.750  -0.2547   0.13615   0.13211  -0.0411   1.0000   0.0626
 -12.500  -0.2739   0.13526   0.13125  -0.0435   1.0000   0.0632
 -12.250  -0.2870   0.13307   0.12912  -0.0454   1.0000   0.0634
 -12.000  -0.2565   0.12769   0.12372  -0.0418   1.0000   0.0647
 -11.750  -0.2483   0.12525   0.12129  -0.0407   1.0000   0.0662
 -11.500  -0.2460   0.12300   0.11906  -0.0401   1.0000   0.0681
 -11.250  -0.2478   0.12063   0.11672  -0.0400   1.0000   0.0706
 -11.000  -0.2629   0.11856   0.11469  -0.0413   1.0000   0.0729
 -10.750  -0.2868   0.11649   0.11270  -0.0434   1.0000   0.0736
 -10.500  -0.3382   0.11693   0.11271  -0.0421   1.0000   0.0727
 -10.250  -0.3629   0.11460   0.11049  -0.0464   1.0000   0.0736
 -10.000  -0.3569   0.11001   0.10593  -0.0451   1.0000   0.0744
  -9.750  -0.3407   0.10716   0.10307  -0.0424   1.0000   0.0756
  -9.500  -0.3347   0.10482   0.10076  -0.0410   1.0000   0.0770
  -9.250  -0.3348   0.10256   0.09854  -0.0400   1.0000   0.0787
  -9.000  -0.3399   0.10033   0.09637  -0.0390   1.0000   0.0806
  -8.750  -0.3530   0.09824   0.09436  -0.0381   1.0000   0.0828
  -8.500  -0.3868   0.09686   0.09311  -0.0375   1.0000   0.0845
  -8.250  -0.4228   0.09592   0.09230  -0.0351   1.0000   0.0849
  -8.000  -0.4551   0.09394   0.09043  -0.0352   1.0000   0.0852
  -7.750  -0.4834   0.08970   0.08620  -0.0395   1.0000   0.0854
  -7.500  -0.4662   0.08681   0.08339  -0.0330   0.9992   0.0865
  -7.250  -0.4403   0.08487   0.08144  -0.0307   0.9968   0.0884
  -7.000  -0.4133   0.08095   0.07748  -0.0361   0.9916   0.0932
  -6.750  -0.3927   0.06946   0.06581  -0.0573   0.9812   0.1000
  -6.500  -0.3671   0.06702   0.06337  -0.0579   0.9759   0.1021
  -6.250  -0.3347   0.06222   0.05845  -0.0650   0.9713   0.1072
  -6.000  -0.3171   0.04878   0.04436  -0.0787   0.9605   0.1006
  -5.750  -0.2786   0.05141   0.04726  -0.0782   0.9579   0.1187
  -5.500  -0.2646   0.02697   0.01992  -0.0873   0.9496   0.0708
  -5.250  -0.2251   0.02495   0.01737  -0.0899   0.9455   0.0747
  -5.000  -0.1824   0.02370   0.01608  -0.0931   0.9427   0.0793
  -4.750  -0.1538   0.02292   0.01505  -0.0932   0.9339   0.0844
  -4.500  -0.1132   0.02159   0.01368  -0.0959   0.9302   0.0902
  -4.250  -0.0684   0.02081   0.01268  -0.0990   0.9275   0.0986
  -4.000  -0.0407   0.01999   0.01196  -0.0991   0.9187   0.1060
  -3.750   0.0007   0.01913   0.01107  -0.1017   0.9149   0.1170
  -3.500   0.0434   0.01833   0.01025  -0.1044   0.9120   0.1307
  -3.250   0.0710   0.01785   0.00977  -0.1042   0.9024   0.1441
  -3.000   0.1096   0.01713   0.00914  -0.1060   0.8979   0.1628
  -2.750   0.1404   0.01664   0.00872  -0.1064   0.8900   0.1835
  -2.500   0.1739   0.01606   0.00822  -0.1072   0.8832   0.2099
  -2.250   0.2066   0.01555   0.00780  -0.1079   0.8763   0.2414
  -2.000   0.2362   0.01504   0.00744  -0.1079   0.8673   0.2771
  -1.750   0.2658   0.01453   0.00711  -0.1080   0.8589   0.3210
  -1.500   0.2951   0.01393   0.00674  -0.1080   0.8500   0.3799
  -1.250   0.3199   0.01323   0.00657  -0.1071   0.8395   0.4929
  -1.000   0.3416   0.01220   0.00643  -0.1046   0.8317   0.7475
  -0.750   0.4022   0.01171   0.00620  -0.1098   0.8217   1.0000
  -0.500   0.4296   0.01164   0.00595  -0.1094   0.8106   1.0000
  -0.250   0.4578   0.01158   0.00569  -0.1090   0.7995   1.0000
   0.000   0.4829   0.01161   0.00559  -0.1083   0.7862   1.0000
   0.250   0.5089   0.01165   0.00549  -0.1077   0.7733   1.0000
   0.500   0.5357   0.01170   0.00540  -0.1072   0.7611   1.0000
   0.750   0.5636   0.01174   0.00528  -0.1069   0.7497   1.0000
   1.000   0.5892   0.01185   0.00528  -0.1063   0.7364   1.0000
   1.250   0.6151   0.01198   0.00532  -0.1057   0.7235   1.0000
   1.500   0.6416   0.01212   0.00534  -0.1053   0.7116   1.0000
   1.750   0.6692   0.01225   0.00534  -0.1050   0.7008   1.0000
   2.000   0.6949   0.01243   0.00545  -0.1045   0.6885   1.0000
   2.250   0.7209   0.01262   0.00558  -0.1040   0.6770   1.0000
   2.500   0.7481   0.01281   0.00566  -0.1038   0.6670   1.0000
   2.750   0.7742   0.01301   0.00581  -0.1033   0.6559   1.0000
   3.000   0.8001   0.01324   0.00600  -0.1029   0.6455   1.0000
   3.250   0.8279   0.01346   0.00610  -0.1028   0.6366   1.0000
   3.500   0.8529   0.01370   0.00637  -0.1022   0.6258   1.0000
   3.750   0.8795   0.01395   0.00657  -0.1019   0.6167   1.0000
   4.000   0.9058   0.01419   0.00678  -0.1015   0.6071   1.0000
   4.250   0.9314   0.01446   0.00705  -0.1011   0.5977   1.0000
   4.500   0.9585   0.01471   0.00724  -0.1009   0.5889   1.0000
   4.750   0.9832   0.01499   0.00757  -0.1003   0.5790   1.0000
   5.000   1.0105   0.01526   0.00777  -0.1001   0.5705   1.0000
   5.250   1.0348   0.01552   0.00811  -0.0994   0.5602   1.0000
   5.500   1.0604   0.01581   0.00840  -0.0990   0.5508   1.0000
   5.750   1.0862   0.01606   0.00863  -0.0985   0.5408   1.0000
   6.000   1.1099   0.01633   0.00897  -0.0977   0.5298   1.0000
   6.250   1.1347   0.01658   0.00921  -0.0971   0.5189   1.0000
   6.500   1.1595   0.01680   0.00938  -0.0964   0.5070   1.0000
   6.750   1.1814   0.01700   0.00967  -0.0952   0.4935   1.0000
   7.000   1.2035   0.01723   0.00993  -0.0941   0.4799   1.0000
   7.250   1.2256   0.01746   0.01019  -0.0930   0.4664   1.0000
   7.500   1.2472   0.01770   0.01046  -0.0918   0.4527   1.0000
   7.750   1.2681   0.01794   0.01073  -0.0905   0.4383   1.0000
   8.000   1.2879   0.01820   0.01102  -0.0890   0.4229   1.0000
   8.250   1.3065   0.01847   0.01135  -0.0873   0.4063   1.0000
   8.500   1.3238   0.01876   0.01173  -0.0854   0.3877   1.0000
   8.750   1.3397   0.01911   0.01210  -0.0834   0.3672   1.0000
   9.000   1.3535   0.01956   0.01253  -0.0810   0.3446   1.0000
   9.250   1.3646   0.02014   0.01308  -0.0782   0.3181   1.0000
   9.500   1.3719   0.02090   0.01376  -0.0750   0.2880   1.0000
   9.750   1.3735   0.02190   0.01461  -0.0709   0.2555   1.0000
  10.000   1.3730   0.02321   0.01575  -0.0670   0.2186   1.0000
  10.250   1.3688   0.02491   0.01722  -0.0629   0.1838   1.0000
  10.500   1.3636   0.02686   0.01897  -0.0591   0.1548   1.0000
  10.750   1.3597   0.02891   0.02089  -0.0558   0.1329   1.0000
  11.000   1.3562   0.03106   0.02297  -0.0528   0.1175   1.0000
  11.250   1.3540   0.03325   0.02512  -0.0503   0.1062   1.0000
  11.500   1.3510   0.03561   0.02743  -0.0480   0.0978   1.0000
  11.750   1.3517   0.03778   0.02962  -0.0461   0.0903   1.0000
  12.000   1.3515   0.04012   0.03197  -0.0443   0.0845   1.0000
  12.250   1.3537   0.04230   0.03420  -0.0428   0.0793   1.0000
  12.500   1.3544   0.04468   0.03654  -0.0411   0.0750   1.0000
  12.750   1.3591   0.04675   0.03874  -0.0399   0.0708   1.0000
  13.000   1.3627   0.04893   0.04089  -0.0387   0.0674   1.0000
  13.250   1.3690   0.05095   0.04294  -0.0372   0.0642   1.0000
  13.500   1.3745   0.05304   0.04516  -0.0362   0.0612   1.0000
  13.750   1.3807   0.05506   0.04719  -0.0352   0.0585   1.0000
  14.000   1.3945   0.05661   0.04866  -0.0336   0.0558   1.0000
  14.250   1.3995   0.05888   0.05114  -0.0327   0.0540   1.0000
  14.500   1.4045   0.06115   0.05356  -0.0318   0.0520   1.0000
  14.750   1.4110   0.06326   0.05571  -0.0311   0.0501   1.0000
  15.000   1.4315   0.06465   0.05699  -0.0296   0.0478   1.0000
  15.250   1.4302   0.06761   0.06021  -0.0290   0.0469   1.0000
  15.500   1.4294   0.07068   0.06353  -0.0284   0.0459   1.0000
  15.750   1.4286   0.07382   0.06689  -0.0280   0.0448   1.0000
  16.000   1.4280   0.07692   0.07015  -0.0277   0.0437   1.0000
  16.250   1.4260   0.08019   0.07357  -0.0277   0.0428   1.0000
  16.500   1.4286   0.08297   0.07641  -0.0276   0.0417   1.0000
  16.750   1.4386   0.08578   0.07922  -0.0266   0.0405   1.0000
  17.000   1.4229   0.09068   0.08441  -0.0276   0.0403   1.0000
  17.250   1.4066   0.09601   0.09002  -0.0290   0.0401   1.0000
  17.500   1.3890   0.10182   0.09610  -0.0309   0.0399   1.0000
  17.750   1.3697   0.10816   0.10271  -0.0335   0.0398   1.0000
  18.000   1.3490   0.11505   0.10985  -0.0367   0.0398   1.0000
  18.250   1.3265   0.12263   0.11768  -0.0407   0.0398   1.0000
  18.500   1.3024   0.13098   0.12627  -0.0455   0.0399   1.0000
  18.750   1.2770   0.14014   0.13565  -0.0512   0.0401   1.0000
  19.000   1.2502   0.15021   0.14591  -0.0578   0.0403   1.0000
  19.500   0.7223   0.20618   0.20250  -0.0711   0.0802   1.0000
  19.750   0.7324   0.20818   0.20454  -0.0709   0.0778   1.0000
  20.000   0.7606   0.21217   0.20856  -0.0681   0.0762   1.0000
