  
       XFOIL         Version 6.99
  
 Calculated polar for: NACA 4412                                       
  
 1 1 Reynolds number fixed          Mach number fixed         
  
 xtrf =   1.000 (top)        1.000 (bottom)  
 Mach =   0.000     Re =     0.120 e 6     Ncrit =   9.000
  
   alpha    CL        CD       CDp       CM     Top_Xtr  Bot_Xtr
  ------ -------- --------- --------- -------- -------- --------
 -20.000  -0.5763   0.23789   0.23251   0.0116   1.0000   0.0398
 -19.250  -0.5486   0.22712   0.22175   0.0071   1.0000   0.0411
 -19.000  -0.5393   0.22407   0.21870   0.0056   1.0000   0.0419
 -18.750  -0.5304   0.22111   0.21573   0.0039   1.0000   0.0429
 -18.500  -0.5218   0.21815   0.21277   0.0021   1.0000   0.0440
 -18.250  -0.5138   0.21524   0.20987   0.0001   1.0000   0.0452
 -18.000  -0.5080   0.21311   0.20775  -0.0028   1.0000   0.0462
 -17.750  -0.5093   0.21332   0.20799  -0.0069   1.0000   0.0466
 -17.500  -0.4929   0.20640   0.20106  -0.0065   1.0000   0.0473
 -17.250  -0.4819   0.20271   0.19737  -0.0071   1.0000   0.0483
 -17.000  -0.4728   0.19967   0.19434  -0.0083   1.0000   0.0495
 -16.750  -0.4645   0.19667   0.19133  -0.0099   1.0000   0.0509
 -16.500  -0.4570   0.19369   0.18836  -0.0117   1.0000   0.0523
 -16.250  -0.4524   0.19138   0.18607  -0.0143   1.0000   0.0538
 -16.000  -0.4557   0.19106   0.18578  -0.0181   1.0000   0.0543
 -15.750  -0.4477   0.18669   0.18143  -0.0194   1.0000   0.0547
 -15.500  -0.4309   0.18114   0.17586  -0.0188   1.0000   0.0556
 -15.250  -0.4210   0.17781   0.17254  -0.0194   1.0000   0.0568
 -15.000  -0.4128   0.17476   0.16948  -0.0205   1.0000   0.0582
 -14.750  -0.4057   0.17177   0.16651  -0.0219   1.0000   0.0601
 -14.500  -0.4031   0.16942   0.16418  -0.0244   1.0000   0.0625
 -14.250  -0.4144   0.16959   0.16440  -0.0286   1.0000   0.0633
 -14.000  -0.4006   0.16366   0.15848  -0.0287   1.0000   0.0640
 -13.750  -0.3845   0.15909   0.15390  -0.0280   1.0000   0.0652
 -13.500  -0.3755   0.15591   0.15072  -0.0285   1.0000   0.0667
 -13.250  -0.3687   0.15288   0.14770  -0.0294   1.0000   0.0685
 -13.000  -0.3638   0.14991   0.14475  -0.0307   1.0000   0.0707
 -12.750  -0.3675   0.14796   0.14283  -0.0336   1.0000   0.0729
 -12.500  -0.3829   0.14720   0.14214  -0.0379   1.0000   0.0736
 -12.250  -0.3705   0.14167   0.13662  -0.0375   1.0000   0.0744
 -12.000  -0.3492   0.13704   0.13198  -0.0356   1.0000   0.0761
 -11.750  -0.3404   0.13408   0.12903  -0.0356   1.0000   0.0785
 -11.500  -0.3363   0.13124   0.12622  -0.0365   1.0000   0.0814
 -11.250  -0.3445   0.12931   0.12434  -0.0394   1.0000   0.0844
 -11.000  -0.3653   0.12818   0.12330  -0.0439   1.0000   0.0853
 -10.750  -0.3505   0.12260   0.11774  -0.0423   1.0000   0.0863
 -10.500  -0.3323   0.11883   0.11396  -0.0402   1.0000   0.0880
 -10.250  -0.3253   0.11605   0.11120  -0.0396   1.0000   0.0901
 -10.000  -0.3233   0.11342   0.10861  -0.0396   1.0000   0.0927
  -9.750  -0.3289   0.11105   0.10630  -0.0404   1.0000   0.0959
  -9.500  -0.3587   0.11005   0.10544  -0.0433   1.0000   0.0978
  -9.250  -0.3869   0.10881   0.10434  -0.0440   1.0000   0.0982
  -9.000  -0.2790   0.10103   0.09693  -0.0323   1.0000   0.1049
  -8.750  -0.2879   0.09904   0.09500  -0.0309   1.0000   0.1076
  -8.500  -0.3082   0.09732   0.09336  -0.0303   1.0000   0.1104
  -8.250  -0.3428   0.09612   0.09228  -0.0303   1.0000   0.1116
  -8.000  -0.3750   0.09485   0.09112  -0.0294   1.0000   0.1119
  -7.750  -0.4065   0.09356   0.08992  -0.0277   1.0000   0.1120
  -7.500  -0.4626   0.09318   0.08919  -0.0339   1.0000   0.1119
  -7.250  -0.4706   0.08907   0.08514  -0.0329   1.0000   0.1129
  -7.000  -0.4584   0.08729   0.08341  -0.0262   1.0000   0.1145
  -6.750  -0.4584   0.08541   0.08157  -0.0233   1.0000   0.1162
  -6.500  -0.4550   0.08277   0.07894  -0.0237   0.9987   0.1191
  -6.250  -0.4273   0.07313   0.06909  -0.0436   0.9885   0.1286
  -6.000  -0.3977   0.07075   0.06674  -0.0432   0.9843   0.1323
  -5.750  -0.3691   0.06397   0.05971  -0.0551   0.9749   0.1445
  -5.500  -0.3369   0.06105   0.05679  -0.0572   0.9702   0.1493
  -5.250  -0.3073   0.05522   0.05065  -0.0656   0.9609   0.1609
  -5.000  -0.2730   0.05190   0.04724  -0.0690   0.9555   0.1662
  -4.750  -0.2301   0.02928   0.02167  -0.0815   0.9520   0.0923
  -4.500  -0.1891   0.02764   0.01940  -0.0841   0.9460   0.0980
  -4.250  -0.1442   0.02613   0.01787  -0.0879   0.9425   0.1053
  -4.000  -0.1134   0.02528   0.01666  -0.0883   0.9327   0.1123
  -3.750  -0.0695   0.02412   0.01554  -0.0916   0.9284   0.1229
  -3.500  -0.0378   0.02328   0.01467  -0.0925   0.9196   0.1327
  -3.250   0.0045   0.02245   0.01380  -0.0952   0.9143   0.1474
  -2.750   0.0801   0.02114   0.01255  -0.0988   0.9000   0.1853
  -2.500   0.1266   0.02032   0.01183  -0.1022   0.8964   0.2142
  -2.250   0.1557   0.01986   0.01145  -0.1023   0.8860   0.2428
  -2.000   0.1972   0.01907   0.01085  -0.1046   0.8812   0.2842
  -1.750   0.2262   0.01855   0.01052  -0.1046   0.8710   0.3289
  -1.500   0.2636   0.01760   0.00994  -0.1061   0.8654   0.3992
  -1.250   0.2886   0.01675   0.00977  -0.1052   0.8550   0.5358
  -1.000   0.3377   0.01534   0.00946  -0.1066   0.8507   0.9752
  -0.750   0.3748   0.01518   0.00906  -0.1082   0.8407   1.0000
  -0.500   0.4098   0.01491   0.00858  -0.1090   0.8326   1.0000
  -0.250   0.4360   0.01489   0.00841  -0.1083   0.8202   1.0000
   0.000   0.4655   0.01479   0.00815  -0.1082   0.8097   1.0000
   0.250   0.4970   0.01464   0.00784  -0.1084   0.8001   1.0000
   0.500   0.5228   0.01469   0.00778  -0.1077   0.7874   1.0000
   0.750   0.5504   0.01470   0.00767  -0.1073   0.7759   1.0000
   1.000   0.5818   0.01461   0.00743  -0.1075   0.7666   1.0000
   1.250   0.6067   0.01476   0.00749  -0.1067   0.7535   1.0000
   1.500   0.6330   0.01489   0.00754  -0.1062   0.7416   1.0000
   1.750   0.6619   0.01496   0.00749  -0.1060   0.7316   1.0000
   2.000   0.6886   0.01510   0.00755  -0.1056   0.7202   1.0000
   2.250   0.7141   0.01532   0.00772  -0.1050   0.7086   1.0000
   2.500   0.7423   0.01546   0.00777  -0.1048   0.6990   1.0000
   2.750   0.7686   0.01567   0.00792  -0.1044   0.6882   1.0000
   3.000   0.7941   0.01594   0.00817  -0.1039   0.6775   1.0000
   3.250   0.8236   0.01609   0.00821  -0.1039   0.6690   1.0000
   3.500   0.8472   0.01642   0.00856  -0.1031   0.6577   1.0000
   3.750   0.8738   0.01669   0.00881  -0.1028   0.6484   1.0000
   4.000   0.9007   0.01693   0.00901  -0.1025   0.6389   1.0000
   4.250   0.9253   0.01728   0.00938  -0.1019   0.6288   1.0000
   4.500   0.9545   0.01748   0.00951  -0.1019   0.6205   1.0000
   4.750   0.9773   0.01787   0.00997  -0.1010   0.6096   1.0000
   5.000   1.0040   0.01816   0.01025  -0.1007   0.6005   1.0000
   5.250   1.0296   0.01845   0.01056  -0.1002   0.5906   1.0000
   5.500   1.0538   0.01882   0.01098  -0.0995   0.5803   1.0000
   5.750   1.0827   0.01903   0.01112  -0.0994   0.5713   1.0000
   6.000   1.1045   0.01940   0.01160  -0.0983   0.5596   1.0000
   6.250   1.1288   0.01971   0.01196  -0.0975   0.5485   1.0000
   6.500   1.1556   0.01991   0.01211  -0.0971   0.5374   1.0000
   6.750   1.1791   0.02012   0.01236  -0.0961   0.5244   1.0000
   7.000   1.2010   0.02035   0.01265  -0.0948   0.5104   1.0000
   7.250   1.2231   0.02055   0.01289  -0.0936   0.4962   1.0000
   7.500   1.2449   0.02074   0.01313  -0.0924   0.4816   1.0000
   7.750   1.2662   0.02094   0.01336  -0.0910   0.4667   1.0000
   8.000   1.2866   0.02114   0.01360  -0.0895   0.4512   1.0000
   8.250   1.3057   0.02136   0.01386  -0.0878   0.4348   1.0000
   8.500   1.3232   0.02158   0.01416  -0.0859   0.4174   1.0000
   8.750   1.3392   0.02183   0.01447  -0.0837   0.3986   1.0000
   9.000   1.3537   0.02212   0.01476  -0.0813   0.3784   1.0000
   9.250   1.3644   0.02253   0.01526  -0.0784   0.3542   1.0000
   9.500   1.3727   0.02309   0.01580  -0.0752   0.3277   1.0000
   9.750   1.3760   0.02386   0.01651  -0.0713   0.2974   1.0000
  10.000   1.3738   0.02495   0.01746  -0.0668   0.2638   1.0000
  10.250   1.3679   0.02650   0.01879  -0.0622   0.2282   1.0000
  10.500   1.3595   0.02848   0.02053  -0.0579   0.1956   1.0000
  10.750   1.3513   0.03072   0.02256  -0.0541   0.1687   1.0000
  11.000   1.3451   0.03305   0.02476  -0.0509   0.1479   1.0000
  11.250   1.3407   0.03542   0.02704  -0.0481   0.1326   1.0000
  11.500   1.3379   0.03779   0.02933  -0.0457   0.1209   1.0000
  11.750   1.3365   0.04017   0.03159  -0.0435   0.1116   1.0000
  12.000   1.3391   0.04231   0.03378  -0.0418   0.1031   1.0000
  12.250   1.3429   0.04446   0.03591  -0.0401   0.0962   1.0000
  12.500   1.3479   0.04650   0.03795  -0.0386   0.0901   1.0000
  12.750   1.3565   0.04846   0.03992  -0.0370   0.0847   1.0000
  13.000   1.3636   0.05042   0.04194  -0.0358   0.0799   1.0000
  13.250   1.3798   0.05207   0.04347  -0.0344   0.0753   1.0000
  13.500   1.3867   0.05420   0.04582  -0.0332   0.0720   1.0000
  13.750   1.3961   0.05614   0.04781  -0.0321   0.0687   1.0000
  14.000   1.4177   0.05789   0.04949  -0.0311   0.0650   1.0000
  14.250   1.4209   0.06045   0.05233  -0.0299   0.0631   1.0000
  14.500   1.4259   0.06300   0.05509  -0.0288   0.0611   1.0000
  14.750   1.4303   0.06553   0.05775  -0.0279   0.0592   1.0000
  15.000   1.4583   0.06767   0.05973  -0.0273   0.0562   1.0000
  15.250   1.4459   0.07118   0.06358  -0.0263   0.0556   1.0000
  15.500   1.4340   0.07508   0.06780  -0.0257   0.0549   1.0000
  15.750   1.4217   0.07932   0.07234  -0.0254   0.0543   1.0000
  16.000   1.4071   0.08397   0.07730  -0.0255   0.0539   1.0000
  16.250   1.3903   0.08906   0.08267  -0.0261   0.0536   1.0000
  16.500   1.3705   0.09472   0.08861  -0.0274   0.0534   1.0000
  16.750   1.3481   0.10106   0.09523  -0.0294   0.0533   1.0000
  17.000   1.3228   0.10826   0.10269  -0.0324   0.0534   1.0000
  17.250   1.2943   0.11647   0.11116  -0.0365   0.0536   1.0000
  17.500   1.2629   0.12589   0.12084  -0.0418   0.0541   1.0000
  17.750   1.2286   0.13681   0.13197  -0.0486   0.0548   1.0000
  18.000   1.1938   0.14898   0.14431  -0.0565   0.0556   1.0000
  18.250   1.1629   0.16159   0.15703  -0.0645   0.0563   1.0000
  18.750   0.7246   0.20029   0.19600  -0.0665   0.1116   1.0000
  19.000   0.7116   0.20277   0.19849  -0.0696   0.1062   1.0000
  19.250   0.7197   0.20513   0.20087  -0.0697   0.1022   1.0000
  19.500   0.7481   0.20985   0.20566  -0.0675   0.1001   1.0000
  19.750   0.7312   0.21244   0.20822  -0.0708   0.0991   1.0000
  20.000   0.7184   0.21485   0.21063  -0.0741   0.0947   1.0000
