  
       XFOIL         Version 6.99
  
 Calculated polar for: NACA 4412                                       
  
 1 1 Reynolds number fixed          Mach number fixed         
  
 xtrf =   1.000 (top)        1.000 (bottom)  
 Mach =   0.000     Re =     0.080 e 6     Ncrit =   9.000  9.000
  
   alpha    CL        CD       CDp       CM     Top_Xtr  Bot_Xtr  Top_Itr  Bot_Itr
  ------ -------- --------- --------- -------- -------- -------- -------- --------
 -19.500  -0.5651   0.23009   0.27414   0.0096   1.0000   0.0555   1.0000 101.1590
 -19.250  -0.5552   0.22688   0.26865   0.0082   1.0000   0.0568   1.0000 101.3048
 -19.000  -0.5461   0.22401   0.26287   0.0065   1.0000   0.0585   1.0000 101.4859
 -18.750  -0.5375   0.22131   0.25682   0.0046   1.0000   0.0603   1.0000 101.6903
 -18.500  -0.5306   0.21932   0.25026   0.0021   1.0000   0.0620   1.0000 101.8813
 -18.250  -0.5287   0.21962   0.24349  -0.0014   1.0000   0.0628   1.0000 101.9695
 -17.750  -0.5078   0.21058   0.23262  -0.0038   1.0000   0.0641   1.0000 102.0993
 -17.500  -0.4966   0.20668   0.22787  -0.0046   1.0000   0.0654   1.0000 102.2248
 -17.250  -0.4871   0.20358   0.22283  -0.0059   1.0000   0.0669   1.0000 102.3744
 -17.000  -0.4786   0.20069   0.21761  -0.0075   1.0000   0.0686   1.0000 102.5445
 -16.750  -0.4710   0.19799   0.21221  -0.0093   1.0000   0.0706   1.0000 102.7333
 -16.500  -0.4666   0.19642   0.20642  -0.0119   1.0000   0.0724   1.0000 102.9066
 -16.250  -0.4707   0.19759   0.20101  -0.0155   1.0000   0.0731   1.0000 102.9794
 -16.000  -0.4575   0.19149   0.19593  -0.0162   1.0000   0.0740   1.0000 103.0553
 -15.750  -0.4414   0.18601   0.19191  -0.0159   1.0000   0.0758   1.0000 103.2164
 -15.500  -0.4318   0.18283   0.18755  -0.0168   1.0000   0.0780   1.0000 103.4017
 -15.250  -0.4241   0.17996   0.18296  -0.0182   1.0000   0.0803   1.0000 103.6018
 -15.000  -0.4187   0.17753   0.17815  -0.0200   1.0000   0.0827   1.0000 103.8098
 -14.750  -0.4217   0.17732   0.17332  -0.0231   1.0000   0.0843   1.0000 103.9491
 -14.500  -0.4322   0.17859   0.16939  -0.0265   1.0000   0.0848   1.0000 103.9908
 -14.250  -0.4058   0.16925   0.16451  -0.0253   1.0000   0.0861   1.0000 104.0959
 -14.000  -0.3921   0.16490   0.16074  -0.0253   1.0000   0.0881   1.0000 104.2477
 -13.750  -0.3834   0.16176   0.15689  -0.0260   1.0000   0.0905   1.0000 104.4341
 -13.500  -0.3775   0.15900   0.15293  -0.0272   1.0000   0.0936   1.0000 104.6793
 -13.250  -0.3805   0.15792   0.14882  -0.0298   1.0000   0.0966   1.0000 104.9159
 -13.000  -0.3959   0.15892   0.14533  -0.0335   1.0000   0.0975   1.0000 104.9845
 -12.750  -0.3694   0.15064   0.14118  -0.0319   1.0000   0.0995   1.0000 105.1273
 -12.500  -0.3563   0.14675   0.13781  -0.0316   1.0000   0.1021   1.0000 105.3169
 -12.250  -0.3495   0.14376   0.13437  -0.0322   1.0000   0.1051   1.0000 105.5302
 -12.000  -0.3474   0.14127   0.13085  -0.0336   1.0000   0.1085   1.0000 105.7802
 -11.750  -0.3606   0.14104   0.12747  -0.0367   1.0000   0.1109   1.0000 105.9528
 -11.500  -0.3796   0.14118   0.12413  -0.0405   1.0000   0.1115   1.0000 105.9975
 -11.250  -0.3407   0.13213   0.12070  -0.0366   1.0000   0.1141   1.0000 106.1739
 -11.000  -0.3297   0.12882   0.11777  -0.0362   1.0000   0.1177   1.0000 106.4201
 -10.750  -0.3279   0.12634   0.11477  -0.0369   1.0000   0.1223   1.0000 106.7333
 -10.500  -0.3457   0.12596   0.11179  -0.0397   1.0000   0.1255   1.0000 106.9492
 -10.250  -0.3708   0.12600   0.10892  -0.0427   1.0000   0.1262   1.0000 106.9971
 -10.000  -0.3244   0.11760   0.10604  -0.0380   1.0000   0.1305   1.0000 107.2775
  -9.750  -0.3198   0.11489   0.10342  -0.0375   1.0000   0.1343   1.0000 107.5260
  -9.500  -0.3263   0.11298   0.10084  -0.0379   1.0000   0.1387   1.0000 107.8182
  -9.250  -0.3578   0.11329   0.09861  -0.0397   1.0000   0.1410   1.0000 107.9682
  -9.000  -0.3565   0.10924   0.09603  -0.0388   1.0000   0.1425   1.0000 108.0635
  -8.750  -0.3316   0.10487   0.09357  -0.0360   1.0000   0.1462   1.0000 108.3023
  -8.500  -0.3327   0.10276   0.09151  -0.0346   1.0000   0.1509   1.0000 108.5977
  -8.250  -0.3533   0.10181   0.08981  -0.0335   1.0000   0.1550   1.0000 108.8602
  -8.000  -0.3896   0.10194   0.08876  -0.0314   1.0000   0.1563   1.0000 108.9443
  -7.750  -0.4273   0.10171   0.08732  -0.0303   1.0000   0.1569   1.0000 108.9794
  -7.500  -0.3753   0.09540   0.08472  -0.0265   1.0000   0.1636   1.0000 109.4012
  -7.250  -0.3912   0.09416   0.08348  -0.0234   1.0000   0.1670   1.0000 109.6131
  -7.000  -0.4173   0.09318   0.08211  -0.0214   1.0000   0.1702   1.0000 109.8095
  -6.750  -0.4610   0.09195   0.07800  -0.0277   1.0000   0.1730   1.0000 109.9843
  -6.500  -0.4476   0.08817   0.07742  -0.0211   1.0000   0.1757   1.0000 110.1484
  -6.250  -0.4437   0.08600   0.07588  -0.0176   1.0000   0.1795   1.0000 110.3804
  -6.000  -0.4512   0.08370   0.07330  -0.0180   1.0000   0.1854   1.0000 110.7439
  -5.750  -0.4625   0.07996   0.06920  -0.0224   1.0000   0.1914   1.0000 111.1101
  -5.500  -0.4575   0.07772   0.06785  -0.0187   1.0000   0.1947   1.0000 111.3090
  -5.000  -0.4525   0.07186   0.06212  -0.0207   1.0000   0.2105   1.0000 112.2621
  -4.750  -0.4173   0.06768   0.05812  -0.0272   0.9928   0.2275   1.8948 113.2816
  -4.500  -0.3812   0.06344   0.05398  -0.0338   0.9843   0.2442   2.6973 114.2682
  -4.250  -0.3462   0.05973   0.05043  -0.0389   0.9759   0.2620   3.4023 115.3207
  -4.000  -0.2513   0.03479   0.02124  -0.0670   0.9768   0.1267   3.3331 107.0337
  -3.750  -0.2070   0.03321   0.02024  -0.0709   0.9696   0.1342   3.8982 107.5221
  -3.500  -0.1656   0.03154   0.01828  -0.0740   0.9610   0.1438   4.5272 108.1494
  -3.250  -0.1162   0.03050   0.01694  -0.0783   0.9545   0.1570   4.9902 108.9842
  -3.000  -0.0809   0.02956   0.01636  -0.0802   0.9441   0.1698   5.6851 109.7834
  -2.750  -0.0385   0.02879   0.01559  -0.0832   0.9359   0.1879   6.2299 110.8945
  -2.500   0.0024   0.02803   0.01508  -0.0859   0.9270   0.2091   6.8074 112.1811
  -2.250   0.0386   0.02750   0.01473  -0.0877   0.9168   0.2342   7.4568 113.6756
  -2.000   0.0845   0.02682   0.01424  -0.0910   0.9095   0.2707   7.9204 115.8323
  -1.750   0.1163   0.02634   0.01399  -0.0919   0.8980   0.3087   8.6430 118.0652
  -1.500   0.1642   0.02543   0.01349  -0.0954   0.8924   0.3724   8.9987 121.8258
  -1.250   0.1925   0.02479   0.01337  -0.0956   0.8804   0.4487   9.7512 126.3259
  -1.250   0.1925   0.02479   0.01337  -0.0956   0.8804   0.4487   9.7512 126.3259
  -0.250   0.3511   0.02278   0.01251  -0.1013   0.8460   1.0000  11.8988 160.0000
   0.000   0.3784   0.02298   0.01257  -0.1012   0.8336   1.0000  12.6705 160.0000
   0.250   0.4258   0.02259   0.01208  -0.1040   0.8284   1.0000  12.9901 160.0000
   0.500   0.4501   0.02285   0.01222  -0.1034   0.8155   1.0000  13.7951 160.0000
   0.750   0.4778   0.02303   0.01229  -0.1032   0.8043   1.0000  14.4893 160.0000
   1.000   0.5185   0.02271   0.01190  -0.1048   0.7977   1.0000  14.8987 160.0000
   1.500   0.5843   0.02259   0.01162  -0.1056   0.7801   1.0000  15.9868 160.0000
   2.250   0.6671   0.02310   0.01185  -0.1047   0.7496   1.0000  17.8744 160.0000
   2.500   0.6892   0.02358   0.01221  -0.1038   0.7382   1.0000  18.5828 160.0000
   2.750   0.7272   0.02326   0.01181  -0.1047   0.7320   1.0000  18.9625 160.0000
   3.250   0.7747   0.02411   0.01243  -0.1032   0.7112   1.0000  20.2527 160.0000
   3.500   0.8035   0.02425   0.01248  -0.1030   0.7020   1.0000  20.8154 160.0000
   3.750   0.8258   0.02481   0.01291  -0.1022   0.6917   1.0000  21.4568 160.0000
   4.000   0.8602   0.02466   0.01265  -0.1025   0.6843   1.0000  21.9125 160.0000
   4.250   0.8789   0.02542   0.01329  -0.1013   0.6729   1.0000  22.6119 160.0000
   4.500   0.9147   0.02521   0.01293  -0.1018   0.6660   1.0000  23.0377 160.0000
   4.750   0.9332   0.02597   0.01358  -0.1004   0.6545   1.0000  23.7509 160.0000
   5.000   0.9569   0.02646   0.01393  -0.0997   0.6445   1.0000  24.3648 160.0000
   5.250   0.9890   0.02643   0.01375  -0.0997   0.6360   1.0000  24.8900 160.0000
   5.500   1.0076   0.02720   0.01438  -0.0984   0.6245   1.0000  25.5979 160.0000
   5.750   1.0389   0.02722   0.01422  -0.0983   0.6158   1.0000  26.1384 160.0000
   6.000   1.0629   0.02762   0.01447  -0.0974   0.6047   1.0000  26.8196 160.0000
   6.250   1.0836   0.02822   0.01490  -0.0962   0.5931   1.0000  27.5374 160.0000
   6.500   1.1146   0.02818   0.01464  -0.0960   0.5830   1.0000  28.1596 160.0000
   6.750   1.1419   0.02828   0.01454  -0.0953   0.5712   1.0000  28.8887 160.0000
   7.000   1.1624   0.02872   0.01478  -0.0938   0.5578   1.0000  29.7125 160.0000
   7.250   1.1866   0.02889   0.01469  -0.0927   0.5442   1.0000  30.5524 160.0000
   7.500   1.2125   0.02884   0.01435  -0.0916   0.5298   1.0000  31.4415 160.0000
   7.750   1.2382   0.02872   0.01390  -0.0905   0.5143   1.0000  32.3958 160.0000
   8.000   1.2625   0.02860   0.01344  -0.0891   0.4979   1.0000  33.4106 160.0000
   8.250   1.2856   0.02850   0.01296  -0.0876   0.4807   1.0000  34.4802 160.0000
   8.500   1.3076   0.02839   0.01245  -0.0860   0.4625   1.0000  35.6033 160.0000
   8.750   1.3287   0.02826   0.01187  -0.0842   0.4436   1.0000  36.7806 160.0000
   9.000   1.3491   0.02812   0.01120  -0.0823   0.4236   1.0000  38.0292 160.0000
   9.250   1.3580   0.02841   0.01112  -0.0789   0.4015   1.0000  39.4178 160.0000
   9.500   1.3695   0.02846   0.01060  -0.0758   0.3779   1.0000  40.9297 160.0000
   9.750   1.3727   0.02889   0.01052  -0.0717   0.3511   1.0000  42.6578 160.0000
  10.000   1.3726   0.02953   0.01047  -0.0672   0.3214   1.0000  44.5942 160.0000
  10.250   1.3659   0.03055   0.01068  -0.0620   0.2903   1.0000  46.6324 160.0000
  10.500   1.3567   0.03213   0.01131  -0.0571   0.2580   1.0000  48.7716 160.0000
  10.750   1.3465   0.03419   0.01235  -0.0527   0.2276   1.0000  50.8105 160.0000
  11.000   1.3379   0.03655   0.01370  -0.0489   0.2010   1.0000  52.6200 160.0000
  11.250   1.3331   0.03895   0.01502  -0.0459   0.1798   1.0000  54.0794 160.0000
  11.500   1.3318   0.04132   0.01651  -0.0433   0.1615   1.0000  55.3639 160.0000
  11.750   1.3347   0.04356   0.01782  -0.0412   0.1467   1.0000  56.4232 160.0000
  12.000   1.3423   0.04565   0.01898  -0.0393   0.1343   1.0000  57.3295 160.0000
  12.250   1.3552   0.04759   0.01990  -0.0379   0.1233   1.0000  58.1400 160.0000
  12.500   1.3665   0.04958   0.02110  -0.0364   0.1146   1.0000  58.8016 160.0000
  12.750   1.3803   0.05178   0.02244  -0.0351   0.1071   1.0000  59.3805 160.0000
  13.000   1.4126   0.05371   0.02296  -0.0351   0.0989   1.0000  60.0281 160.0000
  13.250   1.4123   0.05631   0.02518  -0.0331   0.0954   1.0000  60.3208 160.0000
  13.500   1.4185   0.05878   0.02699  -0.0317   0.0912   1.0000  60.6659 160.0000
  13.750   1.4476   0.06155   0.02830  -0.0317   0.0864   1.0000  61.0668 160.0000
  14.000   1.4387   0.06476   0.03116  -0.0295   0.0848   1.0000  61.2059 160.0000
  14.250   1.4299   0.06822   0.03419  -0.0278   0.0831   1.0000  61.3562 160.0000
  14.500   1.4220   0.07176   0.03727  -0.0265   0.0814   1.0000  61.5106 160.0000
  14.750   1.4193   0.07510   0.04002  -0.0256   0.0794   1.0000  61.6866 160.0000
  15.000   1.4185   0.07855   0.04274  -0.0249   0.0776   1.0000  61.8416 160.0000
  15.250   1.4248   0.08288   0.04572  -0.0244   0.0760   1.0000  61.9851 160.0000
  15.500   1.4046   0.08791   0.05049  -0.0241   0.0757   1.0000  62.0083 160.0000
  15.750   1.3800   0.09329   0.05597  -0.0244   0.0757   1.0000  62.0108 160.0000
  16.000   1.3545   0.09919   0.06223  -0.0256   0.0758   1.0000  62.0063 160.0000
