  
       XFOIL         Version 6.99
  
 Calculated polar for: NACA 4412                                       
  
 1 1 Reynolds number fixed          Mach number fixed         
  
 xtrf =   1.000 (top)        1.000 (bottom)  
 Mach =   0.000     Re =     0.240 e 6     Ncrit =   9.000  9.000
  
   alpha    CL        CD       CDp       CM     Top_Xtr  Bot_Xtr  Top_Itr  Bot_Itr
  ------ -------- --------- --------- -------- -------- -------- -------- --------
 -19.250  -0.5573   0.22342   0.26123   0.0074   1.0000   0.0248   1.0000  96.0406
 -19.000  -0.5471   0.22039   0.25719   0.0064   1.0000   0.0251   1.0000  96.1195
 -18.750  -0.5378   0.21766   0.25235   0.0049   1.0000   0.0257   1.0000  96.2414
 -18.500  -0.5288   0.21484   0.24698   0.0032   1.0000   0.0264   1.0000  96.4011
 -18.250  -0.5200   0.21187   0.24124   0.0014   1.0000   0.0272   1.0000  96.5833
 -18.000  -0.5116   0.20875   0.23507  -0.0006   1.0000   0.0280   1.0000  96.7787
 -17.750  -0.5055   0.20560   0.22685  -0.0036   1.0000   0.0288   1.0000  96.9518
 -17.500  -0.5053   0.20346   0.21799  -0.0078   1.0000   0.0290   1.0000  96.9980
 -17.250  -0.4910   0.19881   0.21495  -0.0076   1.0000   0.0292   1.0000  97.0481
 -17.000  -0.4804   0.19571   0.21138  -0.0083   1.0000   0.0296   1.0000  97.1234
 -16.750  -0.4712   0.19286   0.20713  -0.0095   1.0000   0.0301   1.0000  97.2289
 -16.500  -0.4626   0.18996   0.20246  -0.0110   1.0000   0.0308   1.0000  97.3659
 -16.250  -0.4544   0.18693   0.19752  -0.0125   1.0000   0.0317   1.0000  97.5360
 -16.000  -0.4468   0.18373   0.19217  -0.0143   1.0000   0.0327   1.0000  97.7506
 -15.750  -0.4483   0.18085   0.18323  -0.0188   1.0000   0.0339   1.0000  97.9782
 -15.250  -0.4280   0.17347   0.17598  -0.0200   1.0000   0.0347   1.0000  98.1151
 -15.000  -0.4187   0.17061   0.17252  -0.0208   1.0000   0.0353   1.0000  98.2217
 -14.750  -0.4106   0.16767   0.16855  -0.0219   1.0000   0.0360   1.0000  98.3558
 -14.500  -0.4033   0.16461   0.16430  -0.0233   1.0000   0.0370   1.0000  98.5250
 -14.250  -0.3971   0.16135   0.15960  -0.0249   1.0000   0.0383   1.0000  98.7457
 -14.000  -0.4028   0.15819   0.15185  -0.0294   1.0000   0.0396   1.0000  98.9685
 -13.500  -0.3872   0.15049   0.14446  -0.0308   1.0000   0.0403   1.0000  99.0824
 -13.250  -0.3765   0.14759   0.14197  -0.0309   1.0000   0.0409   1.0000  99.1748
 -13.000  -0.3686   0.14476   0.13891  -0.0316   1.0000   0.0418   1.0000  99.3034
 -12.750  -0.3620   0.14182   0.13549  -0.0325   1.0000   0.0431   1.0000  99.5047
 -12.500  -0.3589   0.13851   0.13100  -0.0343   1.0000   0.0452   1.0000  99.8176
 -12.250  -0.3772   0.13472   0.12248  -0.0406   1.0000   0.0463   1.0000  99.9895
 -12.000  -0.3685   0.13050   0.12018  -0.0401   1.0000   0.0468   1.0000 100.0498
 -11.750  -0.3533   0.12760   0.11876  -0.0388   1.0000   0.0474   1.0000 100.1292
 -11.500  -0.3445   0.12492   0.11647  -0.0387   1.0000   0.0482   1.0000 100.2331
 -11.250  -0.3386   0.12214   0.11370  -0.0391   1.0000   0.0493   1.0000 100.3705
 -11.000  -0.3350   0.11919   0.11057  -0.0398   1.0000   0.0507   1.0000 100.5519
 -10.750  -0.3373   0.11586   0.10640  -0.0415   1.0000   0.0528   1.0000 100.8244
 -10.500  -0.3620   0.11142   0.09829  -0.0470   1.0000   0.0540   1.0000 100.9856
 -10.000  -0.2900   0.10739   0.08644  -0.0388   1.0000   0.0567   1.0000 101.2861
  -9.750  -0.2930   0.10542   0.08502  -0.0373   1.0000   0.0580   1.0000 101.4373
  -9.500  -0.3003   0.10321   0.08334  -0.0359   1.0000   0.0596   1.0000 101.6077
  -9.250  -0.3153   0.10064   0.08105  -0.0352   1.0000   0.0614   1.0000 101.8145
  -9.000  -0.3512   0.09728   0.07693  -0.0364   1.0000   0.0627   1.0000 101.9600
  -8.750  -0.3916   0.09428   0.08351  -0.0389   1.0000   0.0624   1.0000 101.9221
  -8.500  -0.4256   0.09239   0.08057  -0.0370   1.0000   0.0627   1.0000 101.9599
  -7.500  -0.3701   0.07513   0.06682  -0.0529   0.9845   0.0672   2.6777 102.4042
  -7.000  -0.3868   0.02697   0.01570  -0.0908   0.9608   0.0463   4.5388  99.9803
  -6.750  -0.3522   0.02437   0.01369  -0.0933   0.9576   0.0479   4.7671 100.1940
  -6.500  -0.3120   0.02329   0.01276  -0.0962   0.9553   0.0503   4.9320 100.5020
  -6.250  -0.2824   0.02220   0.01147  -0.0968   0.9488   0.0529   5.3746 100.8445
  -6.000  -0.2470   0.02056   0.00998  -0.0986   0.9448   0.0554   5.6390 101.1440
  -5.750  -0.2072   0.01967   0.00932  -0.1012   0.9424   0.0586   5.8036 101.4981
  -5.500  -0.1658   0.01893   0.00840  -0.1039   0.9405   0.0627   5.9305 101.9576
  -5.250  -0.1383   0.01785   0.00773  -0.1040   0.9336   0.0662   6.3801 102.3059
  -5.000  -0.1031   0.01724   0.00716  -0.1053   0.9291   0.0710   6.6684 102.7755
  -4.750  -0.0665   0.01632   0.00648  -0.1071   0.9260   0.0766   6.8683 103.2790
  -4.500  -0.0362   0.01585   0.00607  -0.1074   0.9200   0.0824   7.2551 103.7865
  -4.250  -0.0059   0.01517   0.00560  -0.1078   0.9137   0.0893   7.6569 104.3464
  -4.000   0.0289   0.01472   0.00512  -0.1089   0.9095   0.0977   7.9200 104.9953
  -3.750   0.0550   0.01417   0.00484  -0.1084   0.9008   0.1073   8.4687 105.6902
  -3.500   0.0862   0.01363   0.00444  -0.1088   0.8948   0.1189   8.8459 106.5021
  -3.250   0.1137   0.01323   0.00417  -0.1085   0.8866   0.1323   9.3642 107.3954
  -3.000   0.1431   0.01281   0.00387  -0.1086   0.8791   0.1488   9.8293 108.4634
  -2.750   0.1703   0.01249   0.00365  -0.1082   0.8699   0.1678  10.4087 109.6613
  -2.500   0.1996   0.01212   0.00339  -0.1082   0.8619   0.1913  10.9061 111.1042
  -2.250   0.2260   0.01184   0.00325  -0.1078   0.8513   0.2173  11.5693 112.6728
  -2.000   0.2545   0.01152   0.00305  -0.1077   0.8425   0.2486  12.1174 114.5312
  -1.750   0.2814   0.01125   0.00291  -0.1073   0.8313   0.2847  12.8144 116.6555
  -1.500   0.3081   0.01098   0.00279  -0.1069   0.8198   0.3279  13.5235 119.1963
  -1.250   0.3351   0.01063   0.00264  -0.1066   0.8093   0.3886  14.1790 122.7871
  -1.000   0.3596   0.01008   0.00258  -0.1059   0.7976   0.5215  14.9053 130.5847
  -0.750   0.3794   0.00946   0.00263  -0.1038   0.7849   0.7199  15.6927 142.2255
  -0.500   0.4065   0.00906   0.00266  -0.1022   0.7731   0.9181  16.4229 153.9235
  -0.250   0.4630   0.00900   0.00249  -0.1079   0.7610   1.0000  17.1695 160.0000
   0.000   0.4887   0.00906   0.00238  -0.1073   0.7480   1.0000  17.9754 160.0000
   0.250   0.5138   0.00915   0.00233  -0.1066   0.7340   1.0000  18.8394 160.0000
   0.500   0.5392   0.00925   0.00228  -0.1060   0.7203   1.0000  19.6885 160.0000
   0.750   0.5650   0.00936   0.00225  -0.1055   0.7070   1.0000  20.5117 160.0000
   1.000   0.5910   0.00949   0.00222  -0.1050   0.6942   1.0000  21.2967 160.0000
   1.250   0.6172   0.00963   0.00218  -0.1045   0.6821   1.0000  22.0491 160.0000
   1.500   0.6430   0.00977   0.00220  -0.1040   0.6692   1.0000  22.8425 160.0000
   1.750   0.6689   0.00993   0.00222  -0.1036   0.6569   1.0000  23.6021 160.0000
   2.000   0.6952   0.01010   0.00224  -0.1032   0.6456   1.0000  24.2953 160.0000
   2.250   0.7216   0.01029   0.00225  -0.1028   0.6350   1.0000  24.9512 160.0000
   2.500   0.7475   0.01045   0.00232  -0.1024   0.6237   1.0000  25.6509 160.0000
   2.750   0.7740   0.01065   0.00237  -0.1020   0.6138   1.0000  26.2596 160.0000
   3.000   0.8003   0.01084   0.00241  -0.1017   0.6039   1.0000  26.8685 160.0000
   3.250   0.8265   0.01103   0.00250  -0.1014   0.5941   1.0000  27.4754 160.0000
   3.750   0.8790   0.01144   0.00265  -0.1007   0.5757   1.0000  28.6109 160.0000
   4.000   0.9056   0.01168   0.00270  -0.1004   0.5674   1.0000  29.1220 160.0000
   4.250   0.9314   0.01187   0.00280  -0.1000   0.5580   1.0000  29.7011 160.0000
   4.500   0.9577   0.01211   0.00288  -0.0997   0.5496   1.0000  30.2199 160.0000
   4.750   0.9835   0.01232   0.00297  -0.0993   0.5405   1.0000  30.7793 160.0000
   5.000   1.0093   0.01255   0.00306  -0.0989   0.5317   1.0000  31.3259 160.0000
   5.250   1.0351   0.01278   0.00312  -0.0985   0.5227   1.0000  31.8815 160.0000
   5.500   1.0600   0.01300   0.00322  -0.0980   0.5129   1.0000  32.4880 160.0000
   5.750   1.0855   0.01325   0.00325  -0.0975   0.5033   1.0000  33.0794 160.0000
   6.000   1.1094   0.01344   0.00331  -0.0967   0.4918   1.0000  33.7876 160.0000
   6.250   1.1331   0.01364   0.00335  -0.0959   0.4798   1.0000  34.5312 160.0000
   6.500   1.1567   0.01387   0.00336  -0.0951   0.4678   1.0000  35.2757 160.0000
   6.750   1.1800   0.01412   0.00336  -0.0943   0.4558   1.0000  36.0233 160.0000
   7.000   1.2025   0.01433   0.00341  -0.0933   0.4427   1.0000  36.8365 160.0000
   7.250   1.2248   0.01456   0.00346  -0.0923   0.4293   1.0000  37.6715 160.0000
   7.500   1.2467   0.01482   0.00350  -0.0912   0.4153   1.0000  38.5497 160.0000
   7.750   1.2678   0.01509   0.00354  -0.0901   0.4001   1.0000  39.5108 160.0000
   8.000   1.2881   0.01538   0.00358  -0.0887   0.3832   1.0000  40.5849 160.0000
   8.250   1.3071   0.01573   0.00363  -0.0872   0.3644   1.0000  41.7978 160.0000
   8.500   1.3247   0.01616   0.00371  -0.0855   0.3431   1.0000  43.1787 160.0000
   8.750   1.3404   0.01668   0.00383  -0.0835   0.3180   1.0000  44.8135 160.0000
   9.000   1.3537   0.01733   0.00402  -0.0812   0.2896   1.0000  46.6774 160.0000
   9.250   1.3630   0.01813   0.00429  -0.0783   0.2587   1.0000  48.7259 160.0000
   9.500   1.3682   0.01913   0.00469  -0.0748   0.2256   1.0000  50.9426 160.0000
   9.750   1.3722   0.02033   0.00525  -0.0714   0.1906   1.0000  53.3308 160.0000
  10.000   1.3740   0.02174   0.00597  -0.0680   0.1575   1.0000  55.6509 160.0000
  10.250   1.3750   0.02330   0.00683  -0.0647   0.1301   1.0000  57.6324 160.0000
  10.500   1.3756   0.02497   0.00781  -0.0615   0.1105   1.0000  59.1204 160.0000
  10.750   1.3775   0.02664   0.00883  -0.0588   0.0962   1.0000  60.2506 160.0000
  11.000   1.3780   0.02849   0.01000  -0.0561   0.0863   1.0000  61.0805 160.0000
  11.250   1.3812   0.03022   0.01113  -0.0539   0.0783   1.0000  61.7781 160.0000
  11.500   1.3830   0.03215   0.01243  -0.0518   0.0724   1.0000  62.3307 160.0000
  11.750   1.3846   0.03418   0.01380  -0.0500   0.0675   1.0000  62.7971 160.0000
  12.000   1.3845   0.03644   0.01537  -0.0481   0.0636   1.0000  63.1860 160.0000
  12.250   1.3884   0.03843   0.01677  -0.0468   0.0599   1.0000  63.5799 160.0000
  12.500   1.3870   0.04096   0.01854  -0.0453   0.0570   1.0000  63.8873 160.0000
  12.750   1.3876   0.04336   0.02025  -0.0440   0.0545   1.0000  64.1789 160.0000
  13.000   1.3912   0.04557   0.02186  -0.0430   0.0520   1.0000  64.4790 160.0000
  13.250   1.3929   0.04798   0.02360  -0.0420   0.0499   1.0000  64.7303 160.0000
  13.500   1.3907   0.05073   0.02547  -0.0408   0.0479   1.0000  64.9609 160.0000
  13.750   1.3943   0.05306   0.02719  -0.0399   0.0462   1.0000  65.1889 160.0000
  14.000   1.3980   0.05543   0.02896  -0.0393   0.0444   1.0000  65.4372 160.0000
  14.250   1.4010   0.05787   0.03076  -0.0387   0.0428   1.0000  65.6585 160.0000
  14.500   1.4035   0.06031   0.03245  -0.0380   0.0414   1.0000  65.8491 160.0000
  14.750   1.4080   0.06243   0.03368  -0.0366   0.0400   1.0000  66.0488 160.0000
  15.000   1.4115   0.06496   0.03567  -0.0363   0.0390   1.0000  66.2200 160.0000
  15.250   1.4146   0.06754   0.03766  -0.0359   0.0378   1.0000  66.4110 160.0000
  15.500   1.4178   0.07012   0.03962  -0.0356   0.0366   1.0000  66.5951 160.0000
  15.750   1.4213   0.07263   0.04148  -0.0354   0.0355   1.0000  66.7636 160.0000
  16.000   1.4290   0.07440   0.04235  -0.0342   0.0343   1.0000  66.9542 160.0000
  16.250   1.4308   0.07722   0.04455  -0.0338   0.0336   1.0000  67.0880 160.0000
  16.500   1.4304   0.08044   0.04731  -0.0339   0.0329   1.0000  67.2074 160.0000
  16.750   1.4301   0.08368   0.05009  -0.0340   0.0322   1.0000  67.3334 160.0000
  17.000   1.4297   0.08696   0.05294  -0.0343   0.0316   1.0000  67.4579 160.0000
  17.250   1.4282   0.09040   0.05601  -0.0347   0.0309   1.0000  67.5760 160.0000
  17.500   1.4272   0.09379   0.05907  -0.0353   0.0303   1.0000  67.6902 160.0000
  17.750   1.4284   0.09683   0.06176  -0.0358   0.0297   1.0000  67.8058 160.0000
  18.000   1.4341   0.09905   0.06341  -0.0354   0.0290   1.0000  67.9422 160.0000
  18.250   1.4279   0.10333   0.06766  -0.0362   0.0285   1.0000  68.0316 160.0000
  18.500   1.4155   0.10883   0.07375  -0.0386   0.0283   1.0000  68.0828 160.0000
  18.750   1.4025   0.11464   0.08045  -0.0412   0.0280   1.0000  68.1337 160.0000
  19.000   1.3885   0.12079   0.08789  -0.0443   0.0278   1.0000  68.1788 160.0000
  19.250   1.3733   0.12739   0.09628  -0.0478   0.0277   1.0000  68.2131 160.0000
  19.500   1.3561   0.13462   0.10594  -0.0521   0.0275   1.0000  68.2352 160.0000
  19.750   1.3366   0.14265   0.11726  -0.0571   0.0275   1.0000  68.2439 160.0000
  20.000   1.3139   0.15182   0.13093  -0.0633   0.0276   1.0000  68.2342 160.0000
