  
       XFOIL         Version 6.99
  
 Calculated polar for: NACA 4412                                       
  
 1 1 Reynolds number fixed          Mach number fixed         
  
 xtrf =   1.000 (top)        1.000 (bottom)  
 Mach =   0.000     Re =     0.200 e 6     Ncrit =   9.000
  
   alpha    CL        CD       CDp       CM     Top_Xtr  Bot_Xtr
  ------ -------- --------- --------- -------- -------- --------
 -20.000  -0.5737   0.23506   0.23087   0.0138   1.0000   0.0265
 -19.750  -0.5649   0.23207   0.22788   0.0118   1.0000   0.0272
 -19.500  -0.5563   0.22899   0.22480   0.0098   1.0000   0.0280
 -19.250  -0.5490   0.22605   0.22186   0.0068   1.0000   0.0289
 -19.000  -0.5462   0.22416   0.22000   0.0029   1.0000   0.0292
 -18.750  -0.5331   0.21935   0.21518   0.0029   1.0000   0.0295
 -18.500  -0.5233   0.21624   0.21206   0.0018   1.0000   0.0299
 -18.250  -0.5143   0.21332   0.20915   0.0004   1.0000   0.0305
 -18.000  -0.5056   0.21036   0.20619  -0.0013   1.0000   0.0311
 -17.750  -0.4971   0.20731   0.20314  -0.0030   1.0000   0.0320
 -17.500  -0.4891   0.20415   0.19998  -0.0049   1.0000   0.0330
 -17.250  -0.4835   0.20114   0.19698  -0.0079   1.0000   0.0339
 -17.000  -0.4847   0.19941   0.19527  -0.0121   1.0000   0.0342
 -16.750  -0.4703   0.19428   0.19014  -0.0118   1.0000   0.0345
 -16.500  -0.4595   0.19092   0.18678  -0.0123   1.0000   0.0350
 -16.250  -0.4504   0.18799   0.18386  -0.0134   1.0000   0.0357
 -16.000  -0.4420   0.18506   0.18092  -0.0147   1.0000   0.0368
 -15.750  -0.4346   0.18195   0.17782  -0.0163   1.0000   0.0382
 -15.500  -0.4315   0.17894   0.17483  -0.0194   1.0000   0.0396
 -15.250  -0.4382   0.17721   0.17312  -0.0237   1.0000   0.0399
 -14.750  -0.4104   0.16841   0.16432  -0.0232   1.0000   0.0409
 -14.500  -0.4015   0.16543   0.16134  -0.0239   1.0000   0.0416
 -14.250  -0.3939   0.16244   0.15836  -0.0250   1.0000   0.0426
 -14.000  -0.3874   0.15932   0.15526  -0.0263   1.0000   0.0439
 -13.750  -0.3829   0.15606   0.15201  -0.0281   1.0000   0.0455
 -13.500  -0.3942   0.15372   0.14970  -0.0329   1.0000   0.0465
 -13.250  -0.3915   0.14952   0.14553  -0.0345   1.0000   0.0469
 -13.000  -0.3704   0.14562   0.14162  -0.0325   1.0000   0.0478
 -12.750  -0.3613   0.14280   0.13880  -0.0327   1.0000   0.0489
 -12.500  -0.3549   0.13984   0.13585  -0.0336   1.0000   0.0503
 -12.250  -0.3506   0.13667   0.13270  -0.0348   1.0000   0.0520
 -12.000  -0.3594   0.13365   0.12971  -0.0387   1.0000   0.0540
 -11.750  -0.3724   0.13022   0.12633  -0.0434   1.0000   0.0544
 -11.500  -0.3585   0.12578   0.12190  -0.0416   1.0000   0.0550
 -11.250  -0.3437   0.12286   0.11898  -0.0401   1.0000   0.0559
 -11.000  -0.3358   0.12017   0.11631  -0.0399   1.0000   0.0570
 -10.750  -0.3314   0.11741   0.11358  -0.0402   1.0000   0.0584
 -10.500  -0.3302   0.11453   0.11072  -0.0408   1.0000   0.0604
 -10.250  -0.3507   0.11129   0.10757  -0.0449   1.0000   0.0630
 -10.000  -0.2801   0.10556   0.10226  -0.0373   1.0000   0.0653
  -9.750  -0.2807   0.10370   0.10044  -0.0354   1.0000   0.0663
  -9.500  -0.2849   0.10176   0.09854  -0.0337   1.0000   0.0675
  -9.250  -0.2920   0.09972   0.09654  -0.0323   1.0000   0.0689
  -9.000  -0.3024   0.09751   0.09438  -0.0310   1.0000   0.0705
  -8.750  -0.3573   0.09624   0.09277  -0.0375   1.0000   0.0694
  -8.500  -0.3730   0.09429   0.09090  -0.0357   1.0000   0.0710
  -8.250  -0.4025   0.09260   0.08931  -0.0339   1.0000   0.0724
  -8.000  -0.4393   0.09144   0.08827  -0.0311   1.0000   0.0729
  -7.750  -0.4336   0.08034   0.07715  -0.0490   0.9922   0.0744
  -7.500  -0.4107   0.07868   0.07549  -0.0466   0.9894   0.0755
  -7.250  -0.3841   0.07564   0.07242  -0.0495   0.9854   0.0775
  -6.500  -0.3158   0.05622   0.05265  -0.0769   0.9639   0.0896
  -6.000  -0.2854   0.02475   0.01807  -0.0920   0.9495   0.0590
  -5.750  -0.2468   0.02313   0.01606  -0.0943   0.9459   0.0620
  -5.500  -0.2062   0.02160   0.01434  -0.0972   0.9435   0.0659
  -5.000  -0.1380   0.01999   0.01240  -0.0996   0.9322   0.0740
  -4.750  -0.0972   0.01891   0.01138  -0.1024   0.9297   0.0802
  -4.500  -0.0560   0.01797   0.01030  -0.1049   0.9274   0.0869
  -4.250  -0.0302   0.01746   0.00985  -0.1045   0.9185   0.0935
  -4.000   0.0067   0.01665   0.00902  -0.1061   0.9145   0.1023
  -3.750   0.0453   0.01601   0.00834  -0.1080   0.9114   0.1135
  -3.500   0.0704   0.01558   0.00795  -0.1073   0.9014   0.1245
  -3.250   0.1055   0.01496   0.00737  -0.1085   0.8969   0.1397
  -3.000   0.1325   0.01456   0.00700  -0.1081   0.8878   0.1560
  -2.750   0.1646   0.01401   0.00652  -0.1086   0.8815   0.1771
  -2.500   0.1918   0.01363   0.00624  -0.1083   0.8720   0.2004
  -2.250   0.2228   0.01317   0.00585  -0.1086   0.8648   0.2299
  -2.000   0.2490   0.01286   0.00564  -0.1081   0.8541   0.2623
  -1.750   0.2789   0.01244   0.00533  -0.1082   0.8461   0.3032
  -1.500   0.3049   0.01207   0.00514  -0.1076   0.8346   0.3520
  -1.250   0.3306   0.01159   0.00497  -0.1071   0.8235   0.4301
  -1.000   0.3541   0.01082   0.00487  -0.1058   0.8138   0.6217
  -0.750   0.3718   0.01021   0.00491  -0.1024   0.8017   0.8384
  -0.500   0.4353   0.00997   0.00468  -0.1089   0.7906   1.0000
  -0.250   0.4613   0.00999   0.00453  -0.1083   0.7782   1.0000
   0.000   0.4879   0.01002   0.00438  -0.1078   0.7661   1.0000
   0.250   0.5131   0.01009   0.00432  -0.1071   0.7523   1.0000
   0.500   0.5386   0.01018   0.00429  -0.1065   0.7387   1.0000
   0.750   0.5645   0.01029   0.00426  -0.1060   0.7255   1.0000
   1.000   0.5908   0.01040   0.00425  -0.1055   0.7130   1.0000
   1.250   0.6176   0.01054   0.00424  -0.1051   0.7012   1.0000
   1.500   0.6432   0.01068   0.00430  -0.1045   0.6881   1.0000
   1.750   0.6691   0.01084   0.00437  -0.1041   0.6758   1.0000
   2.000   0.6956   0.01102   0.00444  -0.1037   0.6646   1.0000
   2.250   0.7222   0.01119   0.00452  -0.1033   0.6538   1.0000
   2.500   0.7480   0.01138   0.00466  -0.1029   0.6423   1.0000
   2.750   0.7745   0.01158   0.00479  -0.1026   0.6323   1.0000
   3.000   0.8010   0.01178   0.00491  -0.1022   0.6223   1.0000
   3.250   0.8270   0.01200   0.00510  -0.1018   0.6121   1.0000
   3.500   0.8541   0.01223   0.00524  -0.1016   0.6034   1.0000
   3.750   0.8796   0.01243   0.00547  -0.1012   0.5933   1.0000
   4.000   0.9062   0.01268   0.00565  -0.1009   0.5846   1.0000
   4.250   0.9321   0.01290   0.00586  -0.1005   0.5752   1.0000
   4.500   0.9581   0.01315   0.00611  -0.1001   0.5663   1.0000
   4.750   0.9843   0.01338   0.00631  -0.0998   0.5574   1.0000
   5.000   1.0097   0.01363   0.00658  -0.0993   0.5480   1.0000
   5.250   1.0363   0.01389   0.00679  -0.0990   0.5394   1.0000
   5.500   1.0606   0.01412   0.00708  -0.0984   0.5291   1.0000
   5.750   1.0860   0.01437   0.00732  -0.0979   0.5196   1.0000
   6.000   1.1105   0.01459   0.00755  -0.0972   0.5087   1.0000
   6.250   1.1340   0.01481   0.00781  -0.0964   0.4967   1.0000
   6.500   1.1575   0.01503   0.00803  -0.0955   0.4845   1.0000
   6.750   1.1809   0.01527   0.00825  -0.0947   0.4722   1.0000
   7.000   1.2033   0.01549   0.00849  -0.0936   0.4592   1.0000
   7.250   1.2250   0.01571   0.00878  -0.0925   0.4456   1.0000
   7.500   1.2464   0.01596   0.00908  -0.0913   0.4317   1.0000
   7.750   1.2673   0.01622   0.00938  -0.0901   0.4170   1.0000
   8.000   1.2873   0.01650   0.00969  -0.0887   0.4010   1.0000
   8.250   1.3063   0.01680   0.01002  -0.0871   0.3834   1.0000
   8.500   1.3237   0.01717   0.01038  -0.0853   0.3641   1.0000
   8.750   1.3399   0.01760   0.01081  -0.0833   0.3415   1.0000
   9.000   1.3530   0.01818   0.01132  -0.0809   0.3163   1.0000
   9.250   1.3636   0.01889   0.01194  -0.0782   0.2867   1.0000
   9.500   1.3690   0.01977   0.01270  -0.0747   0.2552   1.0000
   9.750   1.3724   0.02089   0.01366  -0.0711   0.2199   1.0000
  10.000   1.3722   0.02233   0.01489  -0.0673   0.1843   1.0000
  10.250   1.3702   0.02402   0.01637  -0.0636   0.1532   1.0000
  10.500   1.3690   0.02580   0.01800  -0.0603   0.1284   1.0000
  10.750   1.3670   0.02773   0.01982  -0.0572   0.1117   1.0000
  11.000   1.3657   0.02973   0.02177  -0.0544   0.0994   1.0000
  11.250   1.3669   0.03165   0.02370  -0.0522   0.0898   1.0000
  11.500   1.3680   0.03367   0.02576  -0.0501   0.0826   1.0000
  11.750   1.3659   0.03603   0.02810  -0.0480   0.0771   1.0000
  12.000   1.3688   0.03809   0.03024  -0.0464   0.0721   1.0000
  12.250   1.3698   0.04034   0.03253  -0.0449   0.0680   1.0000
  12.500   1.3684   0.04289   0.03509  -0.0433   0.0647   1.0000
  12.750   1.3727   0.04499   0.03731  -0.0422   0.0613   1.0000
  13.000   1.3747   0.04732   0.03966  -0.0411   0.0585   1.0000
  13.250   1.3750   0.04979   0.04209  -0.0396   0.0559   1.0000
  13.500   1.3800   0.05195   0.04441  -0.0388   0.0537   1.0000
  13.750   1.3843   0.05416   0.04670  -0.0379   0.0515   1.0000
  14.000   1.3884   0.05639   0.04894  -0.0370   0.0496   1.0000
  14.250   1.3952   0.05831   0.05083  -0.0355   0.0475   1.0000
  14.500   1.3991   0.06072   0.05342  -0.0350   0.0460   1.0000
  14.750   1.4036   0.06306   0.05589  -0.0343   0.0443   1.0000
  15.000   1.4090   0.06529   0.05817  -0.0337   0.0429   1.0000
  15.250   1.4165   0.06725   0.06012  -0.0328   0.0416   1.0000
  15.500   1.4265   0.06911   0.06202  -0.0314   0.0402   1.0000
  15.750   1.4260   0.07217   0.06531  -0.0312   0.0393   1.0000
  16.000   1.4259   0.07523   0.06856  -0.0311   0.0383   1.0000
  16.250   1.4262   0.07827   0.07175  -0.0311   0.0373   1.0000
  16.500   1.4266   0.08132   0.07493  -0.0311   0.0364   1.0000
  16.750   1.4289   0.08415   0.07783  -0.0311   0.0356   1.0000
  17.000   1.4357   0.08640   0.08010  -0.0305   0.0348   1.0000
  17.250   1.4375   0.08963   0.08345  -0.0298   0.0341   1.0000
  17.500   1.4253   0.09455   0.08863  -0.0312   0.0339   1.0000
  17.750   1.4119   0.09987   0.09423  -0.0329   0.0336   1.0000
  18.000   1.3974   0.10555   0.10017  -0.0350   0.0333   1.0000
  18.250   1.3813   0.11169   0.10656  -0.0377   0.0331   1.0000
  18.500   1.3636   0.11839   0.11350  -0.0409   0.0329   1.0000
  18.750   1.3441   0.12573   0.12108  -0.0448   0.0328   1.0000
  19.000   1.3220   0.13395   0.12954  -0.0497   0.0327   1.0000
  19.250   1.2968   0.14329   0.13912  -0.0556   0.0329   1.0000
  19.500   1.2676   0.15418   0.15024  -0.0629   0.0331   1.0000
  19.750   1.2339   0.16711   0.16340  -0.0718   0.0336   1.0000
  20.000   1.1973   0.18210   0.17854  -0.0822   0.0341   1.0000
