  
       XFOIL         Version 6.99
  
 Calculated polar for: NACA 4412                                       
  
 1 1 Reynolds number fixed          Mach number fixed         
  
 xtrf =   1.000 (top)        1.000 (bottom)  
 Mach =   0.000     Re =     0.200 e 6     Ncrit =   9.000  9.000
  
   alpha    CL        CD       CDp       CM     Top_Xtr  Bot_Xtr  Top_Itr  Bot_Itr
  ------ -------- --------- --------- -------- -------- -------- -------- --------
 -19.750  -0.5719   0.23035   0.27821   0.0128   1.0000   0.0272   1.0000  96.5940
 -19.500  -0.5632   0.22733   0.27149   0.0107   1.0000   0.0281   1.0000  96.7897
 -19.250  -0.5567   0.22469   0.26226   0.0072   1.0000   0.0289   1.0000  96.9674
 -19.000  -0.5512   0.22201   0.25452   0.0043   1.0000   0.0291   1.0000  97.0135
 -18.750  -0.5390   0.21789   0.25099   0.0040   1.0000   0.0294   1.0000  97.0776
 -18.500  -0.5294   0.21493   0.24640   0.0027   1.0000   0.0298   1.0000  97.1668
 -18.250  -0.5202   0.21207   0.24130   0.0012   1.0000   0.0304   1.0000  97.2832
 -18.000  -0.5114   0.20917   0.23590  -0.0005   1.0000   0.0311   1.0000  97.4264
 -17.750  -0.5028   0.20618   0.23029  -0.0023   1.0000   0.0320   1.0000  97.5976
 -17.500  -0.4947   0.20308   0.22421  -0.0043   1.0000   0.0330   1.0000  97.8006
 -17.250  -0.4901   0.20037   0.21612  -0.0077   1.0000   0.0338   1.0000  97.9599
 -17.000  -0.4919   0.19883   0.20811  -0.0118   1.0000   0.0340   1.0000  97.9997
 -16.750  -0.4744   0.19335   0.20546  -0.0109   1.0000   0.0344   1.0000  98.0618
 -16.500  -0.4639   0.19019   0.20186  -0.0116   1.0000   0.0349   1.0000  98.1514
 -16.250  -0.4547   0.18733   0.19772  -0.0127   1.0000   0.0357   1.0000  98.2913
 -16.000  -0.4463   0.18442   0.19313  -0.0142   1.0000   0.0368   1.0000  98.4901
 -15.750  -0.4388   0.18133   0.18797  -0.0159   1.0000   0.0382   1.0000  98.7386
 -15.500  -0.4375   0.17863   0.18052  -0.0195   1.0000   0.0395   1.0000  98.9560
 -15.250  -0.4444   0.17707   0.17361  -0.0237   1.0000   0.0397   1.0000  98.9970
 -15.000  -0.4242   0.17134   0.17099  -0.0225   1.0000   0.0402   1.0000  99.0623
 -14.750  -0.4128   0.16807   0.16804  -0.0227   1.0000   0.0408   1.0000  99.1519
 -14.500  -0.4040   0.16514   0.16448  -0.0235   1.0000   0.0416   1.0000  99.2737
 -14.250  -0.3964   0.16217   0.16054  -0.0246   1.0000   0.0426   1.0000  99.4303
 -14.000  -0.3898   0.15907   0.15629  -0.0260   1.0000   0.0439   1.0000  99.6265
 -13.750  -0.3869   0.15587   0.15084  -0.0284   1.0000   0.0456   1.0000  99.8860
 -13.500  -0.3998   0.15374   0.14392  -0.0334   1.0000   0.0463   1.0000  99.9848
 -13.250  -0.3860   0.14883   0.14083  -0.0330   1.0000   0.0468   1.0000 100.0549
 -13.000  -0.3706   0.14558   0.13901  -0.0320   1.0000   0.0477   1.0000 100.1749
 -12.750  -0.3621   0.14278   0.13611  -0.0325   1.0000   0.0490   1.0000 100.3312
 -12.500  -0.3559   0.13978   0.13264  -0.0334   1.0000   0.0504   1.0000 100.5174
 -12.250  -0.3522   0.13659   0.12865  -0.0349   1.0000   0.0521   1.0000 100.7416
 -12.000  -0.3660   0.13368   0.12200  -0.0398   1.0000   0.0538   1.0000 100.9631
 -11.500  -0.3550   0.12579   0.11559  -0.0407   1.0000   0.0549   1.0000 101.0858
 -11.250  -0.3424   0.12296   0.11374  -0.0397   1.0000   0.0558   1.0000 101.1871
 -11.000  -0.3354   0.12026   0.11125  -0.0397   1.0000   0.0570   1.0000 101.3180
 -10.750  -0.3315   0.11746   0.10838  -0.0401   1.0000   0.0585   1.0000 101.4853
 -10.500  -0.3317   0.11451   0.10497  -0.0410   1.0000   0.0607   1.0000 101.7407
 -10.250  -0.3575   0.11116   0.09803  -0.0461   1.0000   0.0628   1.0000 101.9714
  -9.750  -0.3484   0.10454   0.09447  -0.0435   1.0000   0.0644   1.0000 102.1298
  -9.500  -0.3418   0.10253   0.09315  -0.0417   1.0000   0.0655   1.0000 102.2397
  -9.250  -0.3423   0.10042   0.09126  -0.0404   1.0000   0.0667   1.0000 102.3580
  -9.000  -0.3475   0.09830   0.08920  -0.0391   1.0000   0.0681   1.0000 102.4918
  -8.750  -0.3580   0.09624   0.08703  -0.0376   1.0000   0.0696   1.0000 102.6406
  -8.500  -0.3776   0.09427   0.08457  -0.0361   1.0000   0.0713   1.0000 102.8044
  -8.250  -0.4147   0.09276   0.08180  -0.0343   1.0000   0.0724   1.0000 102.9145
  -8.000  -0.4490   0.08797   0.07467  -0.0419   0.9968   0.0731   1.3986 102.9801
  -7.000  -0.3711   0.06042   0.04934  -0.0749   0.9726   0.0856   3.6616 104.0569
  -6.750  -0.3854   0.03157   0.02075  -0.0858   0.9644   0.0524   4.2815 100.7710
  -6.500  -0.3538   0.02812   0.01656  -0.0880   0.9590   0.0539   4.6659 100.9655
  -6.250  -0.3161   0.02594   0.01504  -0.0910   0.9561   0.0566   4.8769 101.2727
  -5.750  -0.2485   0.02317   0.01202  -0.0940   0.9452   0.0619   5.6142 101.8702
  -5.500  -0.2095   0.02167   0.01084  -0.0966   0.9422   0.0657   5.8170 102.2573
  -5.250  -0.1671   0.02074   0.00995  -0.0995   0.9400   0.0702   5.9586 102.6918
  -5.000  -0.1390   0.01984   0.00897  -0.0995   0.9321   0.0741   6.4734 103.0666
  -4.750  -0.1000   0.01896   0.00846  -0.1019   0.9285   0.0799   6.7055 103.5718
  -4.500  -0.0594   0.01800   0.00756  -0.1043   0.9259   0.0866   6.8772 104.1309
  -4.000   0.0048   0.01669   0.00663  -0.1058   0.9136   0.1020   7.6574 105.3101
  -3.750   0.0424   0.01605   0.00608  -0.1074   0.9099   0.1130   7.8927 106.0993
  -3.250   0.1036   0.01500   0.00535  -0.1081   0.8957   0.1392   8.7889 107.8531
  -3.000   0.1343   0.01454   0.00500  -0.1084   0.8889   0.1565   9.2192 108.9537
  -2.750   0.1632   0.01403   0.00471  -0.1084   0.8806   0.1766   9.7372 110.2036
  -2.500   0.1932   0.01361   0.00443  -0.1085   0.8730   0.2011  10.2122 111.6956
  -2.250   0.2215   0.01320   0.00419  -0.1083   0.8639   0.2293  10.7834 113.3861
  -2.000   0.2492   0.01285   0.00399  -0.1081   0.8543   0.2623  11.3777 115.3403
  -1.750   0.2786   0.01244   0.00375  -0.1081   0.8458   0.3030  11.9119 117.7287
  -1.500   0.3044   0.01208   0.00360  -0.1075   0.8342   0.3515  12.6316 120.5900
  -1.250   0.3309   0.01157   0.00343  -0.1071   0.8240   0.4308  13.2649 125.2762
  -1.000   0.3538   0.01081   0.00338  -0.1058   0.8135   0.6208  13.9161 136.4013
  -0.750   0.3714   0.01022   0.00345  -0.1023   0.8013   0.8374  14.6731 149.1495
  -0.500   0.4353   0.00996   0.00325  -0.1089   0.7909   1.0000  15.3210 160.0000
  -0.250   0.4619   0.00997   0.00308  -0.1084   0.7790   1.0000  16.0566 160.0000
   0.000   0.4872   0.01002   0.00298  -0.1077   0.7655   1.0000  16.8918 160.0000
   0.250   0.5126   0.01009   0.00290  -0.1071   0.7518   1.0000  17.7390 160.0000
   0.500   0.5384   0.01018   0.00284  -0.1065   0.7386   1.0000  18.5579 160.0000
   0.750   0.5646   0.01028   0.00279  -0.1060   0.7258   1.0000  19.3498 160.0000
   1.000   0.5912   0.01040   0.00273  -0.1055   0.7135   1.0000  20.1063 160.0000
   1.250   0.6172   0.01053   0.00271  -0.1050   0.7007   1.0000  20.8974 160.0000
   1.500   0.6429   0.01068   0.00273  -0.1045   0.6878   1.0000  21.6948 160.0000
   1.750   0.6691   0.01084   0.00274  -0.1041   0.6759   1.0000  22.4299 160.0000
   2.000   0.6959   0.01101   0.00274  -0.1037   0.6650   1.0000  23.1016 160.0000
   2.250   0.7219   0.01119   0.00278  -0.1033   0.6534   1.0000  23.8190 160.0000
   2.500   0.7480   0.01138   0.00285  -0.1029   0.6423   1.0000  24.5010 160.0000
   2.750   0.7749   0.01159   0.00287  -0.1026   0.6326   1.0000  25.0976 160.0000
   3.000   0.8007   0.01178   0.00296  -0.1022   0.6220   1.0000  25.7554 160.0000
   3.250   0.8271   0.01200   0.00304  -0.1019   0.6123   1.0000  26.3530 160.0000
   3.500   0.8538   0.01222   0.00309  -0.1016   0.6031   1.0000  26.9165 160.0000
   3.750   0.8795   0.01244   0.00321  -0.1012   0.5933   1.0000  27.5226 160.0000
   4.000   0.9066   0.01268   0.00325  -0.1009   0.5849   1.0000  28.0392 160.0000
   4.250   0.9319   0.01290   0.00339  -0.1005   0.5751   1.0000  28.6455 160.0000
   4.500   0.9584   0.01315   0.00347  -0.1002   0.5666   1.0000  29.1672 160.0000
   4.750   0.9840   0.01337   0.00358  -0.0997   0.5572   1.0000  29.7514 160.0000
   5.000   1.0098   0.01363   0.00369  -0.0993   0.5482   1.0000  30.3023 160.0000
   5.250   1.0357   0.01387   0.00375  -0.0989   0.5391   1.0000  30.8690 160.0000
   5.500   1.0606   0.01412   0.00388  -0.0984   0.5292   1.0000  31.4802 160.0000
   5.750   1.0866   0.01438   0.00390  -0.0980   0.5198   1.0000  32.0575 160.0000
   6.000   1.1103   0.01458   0.00399  -0.0972   0.5085   1.0000  32.7576 160.0000
   6.250   1.1340   0.01481   0.00404  -0.0964   0.4968   1.0000  33.4834 160.0000
   6.500   1.1577   0.01504   0.00403  -0.0956   0.4847   1.0000  34.2309 160.0000
   6.750   1.1813   0.01528   0.00399  -0.0947   0.4723   1.0000  34.9969 160.0000
   7.000   1.2031   0.01548   0.00405  -0.0936   0.4589   1.0000  35.8269 160.0000
   7.250   1.2250   0.01571   0.00409  -0.0925   0.4455   1.0000  36.6619 160.0000
   7.500   1.2466   0.01596   0.00411  -0.0913   0.4317   1.0000  37.5224 160.0000
   7.750   1.2675   0.01622   0.00413  -0.0901   0.4171   1.0000  38.4378 160.0000
   8.000   1.2875   0.01650   0.00416  -0.0887   0.4011   1.0000  39.4474 160.0000
   8.250   1.3065   0.01680   0.00418  -0.0871   0.3834   1.0000  40.5744 160.0000
   8.500   1.3240   0.01717   0.00421  -0.0854   0.3639   1.0000  41.8306 160.0000
   8.750   1.3401   0.01760   0.00428  -0.0834   0.3415   1.0000  43.2827 160.0000
   9.000   1.3534   0.01818   0.00440  -0.0810   0.3160   1.0000  44.9473 160.0000
   9.250   1.3641   0.01889   0.00461  -0.0783   0.2863   1.0000  46.8951 160.0000
   9.500   1.3694   0.01978   0.00492  -0.0747   0.2549   1.0000  48.9791 160.0000
   9.750   1.3727   0.02091   0.00540  -0.0711   0.2197   1.0000  51.3468 160.0000
  10.000   1.3726   0.02234   0.00609  -0.0674   0.1840   1.0000  53.7903 160.0000
  10.250   1.3706   0.02403   0.00700  -0.0637   0.1529   1.0000  55.9797 160.0000
  10.500   1.3694   0.02580   0.00804  -0.0604   0.1282   1.0000  57.7745 160.0000
  10.750   1.3671   0.02775   0.00924  -0.0572   0.1116   1.0000  59.0317 160.0000
  11.250   1.3675   0.03164   0.01177  -0.0522   0.0897   1.0000  60.7905 160.0000
  11.500   1.3681   0.03370   0.01316  -0.0501   0.0826   1.0000  61.4060 160.0000
  11.750   1.3668   0.03600   0.01472  -0.0481   0.0770   1.0000  61.8955 160.0000
  12.000   1.3689   0.03811   0.01620  -0.0465   0.0721   1.0000  62.3586 160.0000
  12.250   1.3704   0.04034   0.01775  -0.0450   0.0679   1.0000  62.7542 160.0000
  12.500   1.3683   0.04294   0.01953  -0.0434   0.0647   1.0000  63.0756 160.0000
  12.750   1.3729   0.04502   0.02104  -0.0422   0.0613   1.0000  63.4310 160.0000
  13.000   1.3753   0.04732   0.02267  -0.0412   0.0584   1.0000  63.7359 160.0000
  13.250   1.3751   0.04981   0.02422  -0.0396   0.0558   1.0000  64.0142 160.0000
  13.500   1.3803   0.05196   0.02586  -0.0388   0.0537   1.0000  64.2727 160.0000
  13.750   1.3848   0.05417   0.02745  -0.0379   0.0515   1.0000  64.5363 160.0000
  14.000   1.3889   0.05641   0.02898  -0.0371   0.0495   1.0000  64.7702 160.0000
  14.250   1.3959   0.05828   0.02987  -0.0355   0.0474   1.0000  65.0287 160.0000
  14.500   1.3997   0.06070   0.03178  -0.0350   0.0459   1.0000  65.2310 160.0000
  14.750   1.4042   0.06305   0.03355  -0.0344   0.0443   1.0000  65.4513 160.0000
  15.000   1.4094   0.06530   0.03515  -0.0337   0.0429   1.0000  65.6441 160.0000
  15.250   1.4163   0.06734   0.03644  -0.0329   0.0416   1.0000  65.8253 160.0000
  15.500   1.4281   0.06898   0.03705  -0.0313   0.0401   1.0000  66.0381 160.0000
  15.750   1.4271   0.07208   0.03971  -0.0312   0.0393   1.0000  66.1720 160.0000
  16.000   1.4268   0.07517   0.04230  -0.0311   0.0383   1.0000  66.3300 160.0000
  16.250   1.4270   0.07823   0.04485  -0.0311   0.0373   1.0000  66.4862 160.0000
  16.500   1.4270   0.08134   0.04746  -0.0311   0.0364   1.0000  66.6250 160.0000
  16.750   1.4285   0.08427   0.04986  -0.0312   0.0356   1.0000  66.7468 160.0000
  17.000   1.4333   0.08677   0.05173  -0.0308   0.0349   1.0000  66.8689 160.0000
  17.250   1.4407   0.08929   0.05330  -0.0297   0.0340   1.0000  67.0074 160.0000
  17.500   1.4283   0.09419   0.05827  -0.0310   0.0338   1.0000  67.0527 160.0000
  17.750   1.4151   0.09945   0.06380  -0.0328   0.0335   1.0000  67.1014 160.0000
  18.000   1.4006   0.10510   0.06998  -0.0349   0.0333   1.0000  67.1484 160.0000
  18.250   1.3849   0.11118   0.07693  -0.0376   0.0330   1.0000  67.1909 160.0000
  18.500   1.3676   0.11778   0.08487  -0.0409   0.0328   1.0000  67.2252 160.0000
  18.750   1.3487   0.12500   0.09401  -0.0448   0.0327   1.0000  67.2481 160.0000
  19.000   1.3273   0.13302   0.10472  -0.0496   0.0327   1.0000  67.2544 160.0000
  19.250   1.3031   0.14212   0.11757  -0.0555   0.0328   1.0000  67.2391 160.0000
  19.500   1.2753   0.15264   0.13331  -0.0628   0.0330   1.0000  67.1968 160.0000
  19.750   1.2433   0.16506   0.15307  -0.0716   0.0334   1.0000  67.1220 160.0000
  20.000   1.2081   0.17941   0.17740  -0.0819   0.0339   1.0000  67.0251 160.0000
