  
       XFOIL         Version 6.99
  
 Calculated polar for: NACA 4412                                       
  
 1 1 Reynolds number fixed          Mach number fixed         
  
 xtrf =   1.000 (top)        1.000 (bottom)  
 Mach =   0.000     Re =     0.040 e 6     Ncrit =   9.000
  
   alpha    CL        CD       CDp       CM     Top_Xtr  Bot_Xtr
  ------ -------- --------- --------- -------- -------- --------
 -20.000  -0.3502   0.20417   0.19611  -0.0161   1.0000   0.1104
 -19.750  -0.3522   0.20545   0.19738  -0.0177   1.0000   0.1117
 -19.250  -0.3366   0.19718   0.18912  -0.0193   1.0000   0.1150
 -19.000  -0.3295   0.19416   0.18608  -0.0200   1.0000   0.1178
 -18.750  -0.3245   0.19203   0.18395  -0.0209   1.0000   0.1207
 -18.500  -0.3214   0.19063   0.18253  -0.0220   1.0000   0.1237
 -18.250  -0.3220   0.19088   0.18278  -0.0233   1.0000   0.1258
 -18.000  -0.3273   0.19320   0.18510  -0.0247   1.0000   0.1267
 -17.750  -0.3152   0.18683   0.17875  -0.0253   1.0000   0.1283
 -17.500  -0.3039   0.18206   0.17397  -0.0256   1.0000   0.1317
 -17.250  -0.2984   0.17984   0.17174  -0.0263   1.0000   0.1356
 -17.000  -0.2967   0.17895   0.17085  -0.0273   1.0000   0.1394
 -16.750  -0.3019   0.18071   0.17262  -0.0285   1.0000   0.1416
 -16.250  -0.2847   0.17258   0.16450  -0.0295   1.0000   0.1466
 -16.000  -0.2788   0.17019   0.16210  -0.0300   1.0000   0.1505
 -15.750  -0.2772   0.16910   0.16102  -0.0307   1.0000   0.1544
 -15.500  -0.2829   0.17051   0.16242  -0.0317   1.0000   0.1571
 -15.250  -0.2961   0.17434   0.16627  -0.0326   1.0000   0.1580
 -15.000  -0.2683   0.16346   0.15540  -0.0325   1.0000   0.1624
 -14.750  -0.2629   0.16122   0.15316  -0.0327   1.0000   0.1675
 -14.500  -0.2665   0.16152   0.15346  -0.0334   1.0000   0.1721
 -14.250  -0.2809   0.16499   0.15694  -0.0342   1.0000   0.1739
 -14.000  -0.2595   0.15684   0.14882  -0.0340   1.0000   0.1783
 -13.750  -0.2542   0.15450   0.14648  -0.0341   1.0000   0.1838
 -13.500  -0.2586   0.15451   0.14650  -0.0346   1.0000   0.1885
 -13.250  -0.2738   0.15705   0.14909  -0.0354   1.0000   0.1903
 -13.000  -0.2504   0.14903   0.14108  -0.0349   1.0000   0.1949
 -12.750  -0.2456   0.14660   0.13867  -0.0348   1.0000   0.2011
 -12.500  -0.2554   0.14719   0.13929  -0.0353   1.0000   0.2060
 -12.250  -0.2501   0.14361   0.13575  -0.0353   1.0000   0.2095
 -12.000  -0.2398   0.14003   0.13218  -0.0347   1.0000   0.2173
 -11.750  -0.2515   0.14030   0.13250  -0.0349   1.0000   0.2227
 -11.500  -0.2439   0.13627   0.12852  -0.0346   1.0000   0.2270
 -11.250  -0.2366   0.13321   0.12548  -0.0340   1.0000   0.2346
 -11.000  -0.2516   0.13346   0.12580  -0.0340   1.0000   0.2399
 -10.750  -0.2396   0.12877   0.12115  -0.0333   1.0000   0.2447
 -10.500  -0.2368   0.12633   0.11874  -0.0326   1.0000   0.2534
 -10.250  -0.2598   0.12723   0.11975  -0.0323   1.0000   0.2576
 -10.000  -0.2346   0.12117   0.11369  -0.0311   1.0000   0.2682
  -9.750  -0.2551   0.12143   0.11406  -0.0304   1.0000   0.2743
  -9.500  -0.2355   0.11629   0.10894  -0.0291   1.0000   0.2839
  -9.250  -0.2557   0.11628   0.10905  -0.0279   1.0000   0.2913
  -9.000  -0.2389   0.11154   0.10433  -0.0267   1.0000   0.2997
  -8.750  -0.2579   0.11122   0.10413  -0.0251   1.0000   0.3081
  -8.500  -0.2435   0.10693   0.09988  -0.0236   1.0000   0.3176
  -8.250  -0.2690   0.10709   0.10018  -0.0215   1.0000   0.3256
  -8.000  -0.2543   0.10301   0.09611  -0.0198   1.0000   0.3393
  -7.750  -0.2546   0.10035   0.09353  -0.0178   1.0000   0.3498
  -7.500  -0.2806   0.10039   0.09373  -0.0149   1.0000   0.3594
  -7.250  -0.2704   0.09688   0.09026  -0.0130   1.0000   0.3742
  -7.000  -0.2681   0.09407   0.08751  -0.0109   1.0000   0.3860
  -6.750  -0.2804   0.09243   0.08599  -0.0081   1.0000   0.3974
  -6.500  -0.3038   0.09214   0.08584  -0.0043   1.0000   0.4103
  -6.250  -0.3053   0.08981   0.08359  -0.0016   1.0000   0.4271
  -6.000  -0.3129   0.08801   0.08189   0.0016   1.0000   0.4444
  -5.750  -0.2907   0.08403   0.07791   0.0032   1.0000   0.4711
  -5.500  -0.3003   0.08256   0.07654   0.0068   1.0000   0.4932
  -5.000  -0.3296   0.08018   0.07352   0.0153   1.0000   0.5962
  -4.750  -0.2618   0.07413   0.06731   0.0148   1.0000   0.7062
  -4.500  -0.1131   0.06295   0.05566  -0.0018   1.0000   0.8913
  -4.250  -0.1460   0.06317   0.05607   0.0049   1.0000   0.8637
  -4.000  -0.2064   0.06490   0.05806   0.0156   1.0000   0.8230
  -3.750  -0.2808   0.06664   0.06014   0.0257   1.0000   0.7576
  -3.500  -0.3585   0.06798   0.06178   0.0356   1.0000   0.7055
  -3.250  -0.2846   0.04492   0.03574  -0.0486   1.0000   0.2247
  -3.000  -0.2637   0.04323   0.03399  -0.0488   1.0000   0.2323
  -2.750  -0.2333   0.04108   0.03116  -0.0512   1.0000   0.2409
  -2.500  -0.2122   0.03985   0.02991  -0.0513   1.0000   0.2520
  -2.250  -0.1880   0.03867   0.02851  -0.0520   1.0000   0.2655
  -2.000  -0.1640   0.03773   0.02734  -0.0526   1.0000   0.2815
  -1.750  -0.1409   0.03705   0.02650  -0.0531   1.0000   0.3017
  -1.500  -0.1167   0.03652   0.02573  -0.0537   1.0000   0.3262
  -1.250  -0.0944   0.03611   0.02533  -0.0537   1.0000   0.3544
  -1.000  -0.0699   0.03584   0.02498  -0.0543   1.0000   0.3928
  -0.750  -0.0455   0.03559   0.02490  -0.0546   1.0000   0.4430
  -0.500  -0.0204   0.03526   0.02504  -0.0549   1.0000   0.5199
  -0.250   0.0018   0.03344   0.02514  -0.0519   0.9937   0.9017
   0.000   0.0553   0.03476   0.02521  -0.0595   0.9786   1.0000
   0.250   0.0976   0.03620   0.02614  -0.0639   0.9657   1.0000
   0.500   0.1371   0.03758   0.02714  -0.0676   0.9530   1.0000
   0.750   0.1772   0.03901   0.02827  -0.0713   0.9411   1.0000
   1.000   0.2097   0.04026   0.02928  -0.0737   0.9289   1.0000
   1.250   0.2356   0.04144   0.03028  -0.0750   0.9173   1.0000
   1.500   0.2665   0.04276   0.03143  -0.0770   0.9062   1.0000
   1.750   0.3060   0.04421   0.03270  -0.0804   0.8951   1.0000
   2.000   0.3216   0.04536   0.03376  -0.0800   0.8845   1.0000
   2.250   0.3478   0.04672   0.03501  -0.0812   0.8739   1.0000
   2.500   0.3847   0.04819   0.03638  -0.0839   0.8636   1.0000
   2.750   0.3954   0.04948   0.03763  -0.0829   0.8536   1.0000
   3.000   0.4226   0.05097   0.03905  -0.0842   0.8437   1.0000
   3.250   0.4464   0.05244   0.04047  -0.0851   0.8338   1.0000
   3.500   0.4617   0.05397   0.04199  -0.0848   0.8243   1.0000
   3.750   0.4962   0.05557   0.04355  -0.0870   0.8142   1.0000
   4.000   0.5020   0.05719   0.04518  -0.0856   0.8052   1.0000
   4.250   0.5266   0.05890   0.04689  -0.0866   0.7956   1.0000
   4.500   0.5441   0.06061   0.04861  -0.0867   0.7860   1.0000
   4.750   0.5579   0.06248   0.05050  -0.0864   0.7773   1.0000
   5.000   0.5921   0.06420   0.05224  -0.0883   0.7659   1.0000
   5.250   0.5888   0.06631   0.05440  -0.0864   0.7590   1.0000
   5.500   0.6155   0.06819   0.05633  -0.0874   0.7479   1.0000
   5.750   0.6196   0.07038   0.05857  -0.0865   0.7404   1.0000
   6.000   0.6391   0.07247   0.06070  -0.0869   0.7300   1.0000
   6.250   0.6702   0.07438   0.06270  -0.0882   0.7173   1.0000
   6.500   0.6620   0.07705   0.06543  -0.0865   0.7123   1.0000
   6.750   0.6864   0.07914   0.06759  -0.0872   0.6993   1.0000
   7.000   0.6834   0.08195   0.07047  -0.0862   0.6946   1.0000
   7.250   0.7031   0.08421   0.07282  -0.0865   0.6815   1.0000
   7.500   0.7029   0.08723   0.07592  -0.0860   0.6775   1.0000
   7.750   0.6884   0.09231   0.08109  -0.0872   0.7041   1.0000
   8.250   0.7469   0.09484   0.08385  -0.0861   0.6396   1.0000
   8.500   0.7653   0.09715   0.08627  -0.0860   0.6225   1.0000
   8.750   0.7497   0.10196   0.09115  -0.0864   0.6330   1.0000
   9.250   0.7722   0.10706   0.09648  -0.0854   0.5979   1.0000
   9.500   0.7791   0.11188   0.10143  -0.0871   0.6026   1.0000
   9.750   0.7892   0.11501   0.10468  -0.0871   0.5888   1.0000
  10.000   0.8573   0.10989   0.09978  -0.0812   0.5037   1.0000
  10.250   0.8626   0.11263   0.10263  -0.0803   0.4857   1.0000
  10.500   0.8997   0.11242   0.10262  -0.0781   0.4566   1.0000
  10.750   0.8996   0.11552   0.10583  -0.0772   0.4386   1.0000
  11.000   0.9018   0.11848   0.10889  -0.0764   0.4200   1.0000
  11.250   0.9356   0.11774   0.10836  -0.0734   0.3919   1.0000
  11.500   0.9339   0.12126   0.11196  -0.0729   0.3747   1.0000
  11.750   0.9344   0.12455   0.11533  -0.0723   0.3568   1.0000
  12.000   0.9390   0.12751   0.11839  -0.0716   0.3389   1.0000
  12.250   0.9687   0.12661   0.11769  -0.0682   0.3144   1.0000
  12.750   0.9464   0.13819   0.12931  -0.0710   0.2937   1.0000
  13.000   0.9496   0.14195   0.13313  -0.0710   0.2809   1.0000
  13.250   0.9578   0.14514   0.13640  -0.0707   0.2681   1.0000
  13.500   0.9424   0.15250   0.14374  -0.0739   0.2659   1.0000
  13.750   0.9341   0.15880   0.15004  -0.0765   0.2635   1.0000
  14.000   0.9282   0.16522   0.15648  -0.0793   0.2651   1.0000
  14.250   0.9276   0.17127   0.16257  -0.0818   0.2678   1.0000
