  
       XFOIL         Version 6.99
  
 Calculated polar for: NACA 4412                                       
  
 1 1 Reynolds number fixed          Mach number fixed         
  
 xtrf =   1.000 (top)        1.000 (bottom)  
 Mach =   0.000     Re =     0.080 e 6     Ncrit =   9.000
  
   alpha    CL        CD       CDp       CM     Top_Xtr  Bot_Xtr
  ------ -------- --------- --------- -------- -------- --------
 -20.000  -0.5817   0.24288   0.23632   0.0103   1.0000   0.0543
 -19.750  -0.5711   0.23767   0.23113   0.0090   1.0000   0.0548
 -19.500  -0.5585   0.23209   0.22554   0.0085   1.0000   0.0556
 -19.250  -0.5486   0.22866   0.22210   0.0073   1.0000   0.0569
 -19.000  -0.5395   0.22567   0.21911   0.0056   1.0000   0.0585
 -18.750  -0.5309   0.22285   0.21629   0.0038   1.0000   0.0603
 -18.500  -0.5237   0.22055   0.21399   0.0015   1.0000   0.0621
 -18.250  -0.5207   0.22031   0.21377  -0.0019   1.0000   0.0631
 -18.000  -0.5225   0.22179   0.21529  -0.0054   1.0000   0.0634
 -17.750  -0.5029   0.21236   0.20585  -0.0048   1.0000   0.0642
 -17.500  -0.4912   0.20798   0.20146  -0.0054   1.0000   0.0655
 -17.250  -0.4817   0.20473   0.19822  -0.0067   1.0000   0.0670
 -17.000  -0.4732   0.20173   0.19522  -0.0081   1.0000   0.0687
 -16.750  -0.4655   0.19890   0.19239  -0.0099   1.0000   0.0706
 -16.500  -0.4602   0.19687   0.19037  -0.0122   1.0000   0.0725
 -16.250  -0.4630   0.19752   0.19107  -0.0157   1.0000   0.0735
 -16.000  -0.4599   0.19493   0.18853  -0.0178   1.0000   0.0740
 -15.750  -0.4378   0.18688   0.18044  -0.0166   1.0000   0.0759
 -15.500  -0.4279   0.18352   0.17708  -0.0173   1.0000   0.0780
 -15.000  -0.4142   0.17788   0.17146  -0.0203   1.0000   0.0827
 -14.750  -0.4153   0.17703   0.17064  -0.0231   1.0000   0.0846
 -14.500  -0.4253   0.17813   0.17180  -0.0264   1.0000   0.0853
 -14.250  -0.4067   0.17059   0.16426  -0.0262   1.0000   0.0863
 -14.000  -0.3903   0.16538   0.15903  -0.0258   1.0000   0.0882
 -13.750  -0.3812   0.16208   0.15575  -0.0264   1.0000   0.0905
 -13.500  -0.3748   0.15919   0.15287  -0.0274   1.0000   0.0935
 -13.250  -0.3751   0.15745   0.15116  -0.0296   1.0000   0.0968
 -13.000  -0.3895   0.15828   0.15206  -0.0331   1.0000   0.0980
 -12.750  -0.3728   0.15168   0.14546  -0.0327   1.0000   0.0995
 -12.500  -0.3558   0.14696   0.14073  -0.0319   1.0000   0.1021
 -12.250  -0.3484   0.14386   0.13765  -0.0324   1.0000   0.1050
 -12.000  -0.3450   0.14117   0.13498  -0.0335   1.0000   0.1084
 -11.750  -0.3544   0.14032   0.13420  -0.0362   1.0000   0.1113
 -11.500  -0.3741   0.14062   0.13460  -0.0399   1.0000   0.1121
 -11.250  -0.3436   0.13255   0.12650  -0.0372   1.0000   0.1142
 -11.000  -0.3300   0.12886   0.12280  -0.0364   1.0000   0.1175
 -10.750  -0.3262   0.12620   0.12018  -0.0367   1.0000   0.1220
 -10.500  -0.3393   0.12527   0.11934  -0.0391   1.0000   0.1259
 -10.250  -0.3650   0.12545   0.11967  -0.0421   1.0000   0.1268
 -10.000  -0.3265   0.11773   0.11187  -0.0383   1.0000   0.1304
  -9.750  -0.3198   0.11487   0.10905  -0.0375   1.0000   0.1341
  -9.500  -0.3230   0.11269   0.10693  -0.0376   1.0000   0.1385
  -9.250  -0.3504   0.11263   0.10703  -0.0393   1.0000   0.1416
  -9.000  -0.3851   0.11291   0.10750  -0.0395   1.0000   0.1422
  -8.750  -0.3347   0.10499   0.09946  -0.0362   1.0000   0.1461
  -8.500  -0.3324   0.10268   0.09719  -0.0345   1.0000   0.1505
  -8.250  -0.3475   0.10137   0.09599  -0.0333   1.0000   0.1550
  -8.000  -0.3820   0.10138   0.09619  -0.0315   1.0000   0.1569
  -7.750  -0.4196   0.10131   0.09629  -0.0295   1.0000   0.1576
  -7.500  -0.3798   0.09553   0.09044  -0.0265   1.0000   0.1630
  -7.250  -0.3902   0.09406   0.08905  -0.0234   1.0000   0.1668
  -7.000  -0.4128   0.09296   0.08808  -0.0210   1.0000   0.1700
  -6.750  -0.4514   0.09178   0.08703  -0.0249   1.0000   0.1735
  -6.500  -0.4527   0.08819   0.08350  -0.0225   1.0000   0.1759
  -6.250  -0.4451   0.08595   0.08129  -0.0179   1.0000   0.1795
  -6.000  -0.4497   0.08371   0.07909  -0.0173   1.0000   0.1847
  -5.750  -0.4636   0.07995   0.07531  -0.0232   1.0000   0.1921
  -5.500  -0.4582   0.07764   0.07306  -0.0192   1.0000   0.1950
  -5.250  -0.4554   0.07524   0.07067  -0.0191   1.0000   0.2024
  -5.000  -0.4528   0.07173   0.06713  -0.0213   1.0000   0.2109
  -4.750  -0.4172   0.06760   0.06290  -0.0276   0.9927   0.2281
  -4.500  -0.3801   0.06338   0.05855  -0.0342   0.9845   0.2450
  -4.250  -0.3460   0.05966   0.05472  -0.0392   0.9757   0.2625
  -4.000  -0.3107   0.05642   0.05138  -0.0432   0.9677   0.2829
  -3.750  -0.2074   0.03322   0.02472  -0.0709   0.9696   0.1342
  -3.500  -0.1647   0.03153   0.02249  -0.0742   0.9611   0.1440
  -3.250  -0.1227   0.03054   0.02132  -0.0772   0.9528   0.1556
  -3.000  -0.0790   0.02955   0.02021  -0.0806   0.9447   0.1701
  -2.750  -0.0416   0.02881   0.01937  -0.0827   0.9350   0.1869
  -2.500   0.0054   0.02801   0.01853  -0.0864   0.9280   0.2101
  -2.250   0.0386   0.02749   0.01808  -0.0877   0.9167   0.2341
  -2.000   0.0814   0.02687   0.01754  -0.0905   0.9088   0.2687
  -1.750   0.1183   0.02630   0.01709  -0.0922   0.8987   0.3101
  -1.500   0.1523   0.02571   0.01675  -0.0935   0.8886   0.3616
  -1.250   0.1952   0.02471   0.01628  -0.0960   0.8814   0.4531
  -1.000   0.2183   0.02351   0.01633  -0.0941   0.8713   0.7018
  -0.750   0.2736   0.02281   0.01572  -0.0976   0.8650   1.0000
  -0.500   0.3038   0.02300   0.01564  -0.0982   0.8526   1.0000
  -0.250   0.3554   0.02268   0.01506  -0.1020   0.8475   1.0000
   0.000   0.3811   0.02290   0.01512  -0.1016   0.8345   1.0000
   0.250   0.4109   0.02304   0.01512  -0.1018   0.8234   1.0000
   0.500   0.4534   0.02273   0.01465  -0.1038   0.8167   1.0000
   0.750   0.4786   0.02300   0.01481  -0.1033   0.8045   1.0000
   1.000   0.5222   0.02256   0.01426  -0.1053   0.7991   1.0000
   1.500   0.5718   0.02313   0.01468  -0.1040   0.7759   1.0000
   1.750   0.6085   0.02289   0.01436  -0.1049   0.7685   1.0000
   2.000   0.6314   0.02331   0.01473  -0.1041   0.7569   1.0000
   2.250   0.6705   0.02294   0.01428  -0.1051   0.7509   1.0000
   2.500   0.6906   0.02350   0.01483  -0.1040   0.7386   1.0000
   2.750   0.7193   0.02367   0.01497  -0.1038   0.7297   1.0000
   3.000   0.7490   0.02376   0.01502  -0.1037   0.7207   1.0000
   3.250   0.7718   0.02426   0.01554  -0.1029   0.7102   1.0000
   3.500   0.8066   0.02408   0.01532  -0.1033   0.7030   1.0000
   3.750   0.8259   0.02479   0.01606  -0.1021   0.6916   1.0000
   4.000   0.8637   0.02447   0.01570  -0.1029   0.6853   1.0000
   4.250   0.8806   0.02531   0.01660  -0.1014   0.6734   1.0000
   4.500   0.9058   0.02571   0.01702  -0.1008   0.6639   1.0000
   4.750   0.9359   0.02580   0.01714  -0.1007   0.6552   1.0000
   5.000   0.9558   0.02651   0.01791  -0.0995   0.6442   1.0000
   5.250   0.9925   0.02623   0.01761  -0.1001   0.6369   1.0000
   5.500   1.0091   0.02710   0.01859  -0.0985   0.6248   1.0000
   5.750   1.0335   0.02753   0.01908  -0.0977   0.6147   1.0000
   6.000   1.0661   0.02743   0.01899  -0.0977   0.6054   1.0000
   6.250   1.0844   0.02815   0.01984  -0.0962   0.5932   1.0000
   6.500   1.1102   0.02843   0.02017  -0.0955   0.5822   1.0000
   6.750   1.1456   0.02809   0.01980  -0.0957   0.5718   1.0000
   7.000   1.1647   0.02858   0.02043  -0.0941   0.5582   1.0000
   7.250   1.1873   0.02882   0.02075  -0.0927   0.5443   1.0000
   7.500   1.2122   0.02884   0.02082  -0.0916   0.5297   1.0000
   7.750   1.2374   0.02875   0.02078  -0.0904   0.5143   1.0000
   8.000   1.2620   0.02862   0.02068  -0.0891   0.4979   1.0000
   8.250   1.2856   0.02849   0.02058  -0.0876   0.4806   1.0000
   8.500   1.3082   0.02835   0.02048  -0.0860   0.4626   1.0000
   8.750   1.3302   0.02819   0.02031  -0.0843   0.4437   1.0000
   9.000   1.3471   0.02821   0.02038  -0.0820   0.4236   1.0000
   9.250   1.3575   0.02842   0.02071  -0.0788   0.4015   1.0000
   9.500   1.3702   0.02842   0.02068  -0.0758   0.3781   1.0000
   9.750   1.3726   0.02888   0.02125  -0.0716   0.3513   1.0000
  10.000   1.3723   0.02952   0.02184  -0.0671   0.3216   1.0000
  10.250   1.3656   0.03054   0.02272  -0.0619   0.2906   1.0000
  10.500   1.3564   0.03211   0.02407  -0.0570   0.2584   1.0000
  10.750   1.3463   0.03418   0.02587  -0.0526   0.2280   1.0000
  11.000   1.3376   0.03653   0.02801  -0.0489   0.2012   1.0000
  11.250   1.3327   0.03894   0.03015  -0.0458   0.1799   1.0000
  11.500   1.3315   0.04131   0.03243  -0.0432   0.1616   1.0000
  11.750   1.3342   0.04354   0.03455  -0.0411   0.1468   1.0000
  12.000   1.3417   0.04564   0.03655  -0.0393   0.1343   1.0000
  12.250   1.3542   0.04760   0.03837  -0.0378   0.1235   1.0000
  12.500   1.3674   0.04952   0.04026  -0.0364   0.1145   1.0000
  12.750   1.3794   0.05177   0.04266  -0.0351   0.1073   1.0000
  13.000   1.4104   0.05371   0.04437  -0.0349   0.0992   1.0000
  13.250   1.4111   0.05630   0.04733  -0.0330   0.0955   1.0000
  13.500   1.4186   0.05871   0.04988  -0.0316   0.0912   1.0000
  13.750   1.4450   0.06156   0.05270  -0.0315   0.0867   1.0000
  14.000   1.4367   0.06478   0.05632  -0.0294   0.0850   1.0000
  14.250   1.4288   0.06821   0.06007  -0.0278   0.0832   1.0000
  14.500   1.4224   0.07167   0.06377  -0.0265   0.0813   1.0000
  14.750   1.4214   0.07490   0.06716  -0.0256   0.0792   1.0000
  15.000   1.4281   0.07829   0.07061  -0.0250   0.0771   1.0000
  15.250   1.4234   0.08315   0.07563  -0.0244   0.0761   1.0000
  15.500   1.3998   0.08810   0.08089  -0.0241   0.0760   1.0000
  15.750   1.3750   0.09355   0.08663  -0.0245   0.0760   1.0000
  16.000   1.3491   0.09957   0.09291  -0.0257   0.0761   1.0000
  16.250   1.3227   0.10613   0.09971  -0.0276   0.0762   1.0000
  16.750   1.1188   0.15142   0.14588  -0.0578   0.0881   1.0000
  17.500   0.6971   0.18917   0.18379  -0.0643   0.1702   1.0000
  17.750   0.7138   0.19422   0.18889  -0.0639   0.1669   1.0000
  18.000   0.6943   0.19483   0.18949  -0.0668   0.1614   1.0000
  18.250   0.7013   0.19762   0.19231  -0.0671   0.1563   1.0000
  18.500   0.7293   0.20454   0.19928  -0.0658   0.1531   1.0000
  18.750   0.7022   0.20370   0.19843  -0.0695   0.1500   1.0000
  19.000   0.7043   0.20614   0.20089  -0.0704   0.1438   1.0000
  19.250   0.7271   0.21139   0.20620  -0.0691   0.1398   1.0000
  19.500   0.7162   0.21322   0.20802  -0.0715   0.1383   1.0000
  19.750   0.7090   0.21498   0.20978  -0.0737   0.1332   1.0000
  20.000   0.7154   0.21779   0.21264  -0.0741   0.1287   1.0000
