  
       XFOIL         Version 6.99
  
 Calculated polar for: NACA 4412                                       
  
 1 1 Reynolds number fixed          Mach number fixed         
  
 xtrf =   1.000 (top)        1.000 (bottom)  
 Mach =   0.000     Re =     0.120 e 6     Ncrit =   9.000  9.000
  
   alpha    CL        CD       CDp       CM     Top_Xtr  Bot_Xtr  Top_Itr  Bot_Itr
  ------ -------- --------- --------- -------- -------- -------- -------- --------
 -19.750  -0.3526   0.20053   0.19422  -0.0161   1.0000   0.0430   1.0000  99.4898
 -19.500  -0.3482   0.19846   0.19062  -0.0173   1.0000   0.0441   1.0000  99.6547
 -19.250  -0.3446   0.19656   0.18687  -0.0186   1.0000   0.0452   1.0000  99.8255
 -19.000  -0.3438   0.19551   0.18295  -0.0203   1.0000   0.0460   1.0000  99.9429
 -18.750  -0.3477   0.19606   0.17962  -0.0223   1.0000   0.0463   1.0000  99.9887
 -18.500  -0.3375   0.19125   0.17604  -0.0226   1.0000   0.0468   1.0000 100.0568
 -18.250  -0.3288   0.18810   0.17319  -0.0229   1.0000   0.0478   1.0000 100.1853
 -18.000  -0.3233   0.18599   0.17022  -0.0236   1.0000   0.0491   1.0000 100.3456
 -17.750  -0.3188   0.18403   0.16710  -0.0245   1.0000   0.0504   1.0000 100.5213
 -17.500  -0.3151   0.18217   0.16389  -0.0256   1.0000   0.0518   1.0000 100.7005
 -17.250  -0.3135   0.18076   0.16054  -0.0269   1.0000   0.0532   1.0000 100.8744
 -17.000  -0.3180   0.18109   0.15755  -0.0288   1.0000   0.0538   1.0000 100.9634
 -16.750  -0.3276   0.18294   0.15562  -0.0307   1.0000   0.0541   1.0000 100.9940
 -16.500  -0.3091   0.17569   0.15150  -0.0303   1.0000   0.0548   1.0000 101.0726
 -16.250  -0.3004   0.17270   0.14884  -0.0303   1.0000   0.0558   1.0000 101.1846
 -16.000  -0.2954   0.17072   0.14629  -0.0308   1.0000   0.0570   1.0000 101.3213
 -15.750  -0.2918   0.16900   0.14374  -0.0315   1.0000   0.0584   1.0000 101.4835
 -15.500  -0.2898   0.16753   0.14120  -0.0322   1.0000   0.0603   1.0000 101.6933
 -15.250  -0.2935   0.16728   0.13872  -0.0337   1.0000   0.0622   1.0000 101.9064
 -15.000  -0.3074   0.16896   0.13702  -0.0358   1.0000   0.0629   1.0000 101.9777
 -14.750  -0.3252   0.17043   0.13639  -0.0375   1.0000   0.0631   1.0000 101.9997
 -14.500  -0.2853   0.16020   0.13094  -0.0355   1.0000   0.0647   1.0000 102.1604
 -14.250  -0.2796   0.15776   0.12865  -0.0356   1.0000   0.0661   1.0000 102.2946
 -14.000  -0.2764   0.15556   0.12637  -0.0360   1.0000   0.0677   1.0000 102.4521
 -13.750  -0.2748   0.15337   0.12404  -0.0366   1.0000   0.0696   1.0000 102.6340
 -13.500  -0.2768   0.15146   0.12163  -0.0376   1.0000   0.0717   1.0000 102.8387
 -13.250  -0.2912   0.15114   0.11980  -0.0397   1.0000   0.0729   1.0000 102.9550
 -13.000  -0.3088   0.15068   0.11807  -0.0419   1.0000   0.0732   1.0000 102.9898
 -12.750  -0.2838   0.14395   0.11448  -0.0402   1.0000   0.0743   1.0000 103.0884
 -12.500  -0.2706   0.14057   0.11218  -0.0392   1.0000   0.0763   1.0000 103.2572
 -12.250  -0.2663   0.13803   0.11001  -0.0392   1.0000   0.0787   1.0000 103.4645
 -12.000  -0.2660   0.13554   0.10770  -0.0396   1.0000   0.0814   1.0000 103.7009
 -11.750  -0.2774   0.13391   0.10538  -0.0412   1.0000   0.0839   1.0000 103.9152
 -11.500  -0.2993   0.13289   0.10311  -0.0439   1.0000   0.0847   1.0000 103.9801
 -11.250  -0.2960   0.12846   0.10047  -0.0436   1.0000   0.0854   1.0000 104.0398
 -11.000  -0.2725   0.12411   0.09827  -0.0409   1.0000   0.0872   1.0000 104.1762
 -10.750  -0.2665   0.12141   0.09625  -0.0400   1.0000   0.0891   1.0000 104.3297
 -10.500  -0.2655   0.11885   0.09420  -0.0395   1.0000   0.0915   1.0000 104.5138
 -10.250  -0.2694   0.11637   0.09207  -0.0394   1.0000   0.0943   1.0000 104.7340
 -10.000  -0.2902   0.11473   0.08982  -0.0408   1.0000   0.0968   1.0000 104.9297
  -9.750  -0.3178   0.11334   0.08752  -0.0421   1.0000   0.0975   1.0000 104.9827
  -9.250  -0.3922   0.10906   0.09274  -0.0443   1.0000   0.0977   1.0000 104.9967
  -8.750  -0.3385   0.10068   0.09048  -0.0374   1.0000   0.1036   1.0000 105.4254
  -8.500  -0.3462   0.09878   0.08851  -0.0360   1.0000   0.1065   1.0000 105.6313
  -8.250  -0.3661   0.09735   0.08650  -0.0346   1.0000   0.1091   1.0000 105.8215
  -8.000  -0.4005   0.09675   0.08487  -0.0324   1.0000   0.1103   1.0000 105.9111
  -7.750  -0.4358   0.09581   0.08294  -0.0310   1.0000   0.1109   1.0000 105.9482
  -7.500  -0.4694   0.09292   0.07788  -0.0358   1.0000   0.1114   1.0000 105.9889
  -7.000  -0.3810   0.08693   0.07128  -0.0220   0.9980   0.1182   1.2498 106.4539
  -6.500  -0.4550   0.08286   0.07341  -0.0235   0.9988   0.1191   1.1447 106.5147
  -6.250  -0.4273   0.07339   0.06307  -0.0426   0.9890   0.1280   2.2652 107.1188
  -6.000  -0.3989   0.07106   0.06184  -0.0424   0.9840   0.1322   2.7295 107.3887
  -5.750  -0.3699   0.06421   0.05453  -0.0543   0.9750   0.1440   3.4706 108.1570
  -5.500  -0.3376   0.06114   0.05207  -0.0569   0.9698   0.1491   3.8850 108.4839
  -5.250  -0.3086   0.05534   0.04601  -0.0651   0.9606   0.1602   4.5527 109.1858
  -5.000  -0.2719   0.05188   0.04282  -0.0692   0.9556   0.1665   4.9093 109.5809
  -4.750  -0.2227   0.02917   0.01718  -0.0829   0.9544   0.0930   4.9938 104.6343
  -4.250  -0.1478   0.02617   0.01415  -0.0872   0.9411   0.1049   5.8883 105.5196
  -3.750  -0.0726   0.02417   0.01219  -0.0911   0.9272   0.1225   6.7890 106.7457
  -3.500  -0.0319   0.02322   0.01144  -0.0936   0.9218   0.1339   7.1376 107.5023
  -3.250   0.0021   0.02249   0.01085  -0.0947   0.9134   0.1469   7.6760 108.3451
  -3.000   0.0481   0.02169   0.01024  -0.0981   0.9094   0.1660   7.9243 109.5454
  -2.750   0.0785   0.02117   0.00986  -0.0985   0.8995   0.1849   8.5518 110.7114
  -2.500   0.1232   0.02038   0.00934  -0.1016   0.8949   0.2128   8.8381 112.4025
  -2.250   0.1565   0.01984   0.00899  -0.1025   0.8864   0.2430   9.3726 114.2002
  -2.000   0.1946   0.01913   0.00858  -0.1042   0.8799   0.2826   9.7785 116.5302
  -1.250   0.2905   0.01667   0.00761  -0.1055   0.8561   0.5428  11.2660 131.8292
  -1.000   0.3338   0.01540   0.00751  -0.1059   0.8497   0.9665  11.6637 156.9833
  -0.750   0.3825   0.01499   0.00693  -0.1094   0.8444   1.0000  11.9989 160.0000
  -0.500   0.4076   0.01496   0.00677  -0.1086   0.8315   1.0000  12.8000 160.0000
  -0.250   0.4353   0.01491   0.00658  -0.1082   0.8200   1.0000  13.5134 160.0000
   0.000   0.4702   0.01465   0.00618  -0.1089   0.8123   1.0000  13.9923 160.0000
   0.250   0.4954   0.01468   0.00610  -0.1081   0.7992   1.0000  14.8065 160.0000
   0.500   0.5222   0.01471   0.00600  -0.1076   0.7871   1.0000  15.5542 160.0000
   0.750   0.5519   0.01465   0.00581  -0.1075   0.7768   1.0000  16.1917 160.0000
   1.000   0.5802   0.01466   0.00569  -0.1072   0.7656   1.0000  16.8858 160.0000
   1.250   0.6059   0.01478   0.00570  -0.1066   0.7531   1.0000  17.6595 160.0000
   1.500   0.6333   0.01488   0.00565  -0.1062   0.7419   1.0000  18.3514 160.0000
   1.750   0.6629   0.01491   0.00552  -0.1062   0.7321   1.0000  18.9581 160.0000
   2.000   0.6876   0.01512   0.00563  -0.1055   0.7197   1.0000  19.7254 160.0000
   2.250   0.7142   0.01531   0.00569  -0.1051   0.7088   1.0000  20.3975 160.0000
   2.500   0.7436   0.01542   0.00561  -0.1050   0.6995   1.0000  20.9697 160.0000
   3.000   0.7945   0.01593   0.00588  -0.1040   0.6778   1.0000  22.3100 160.0000
   3.250   0.8223   0.01611   0.00590  -0.1037   0.6683   1.0000  22.8961 160.0000
   3.500   0.8469   0.01643   0.00612  -0.1031   0.6576   1.0000  23.5562 160.0000
   3.750   0.8753   0.01664   0.00614  -0.1030   0.6490   1.0000  24.0873 160.0000
   4.000   0.8998   0.01696   0.00635  -0.1024   0.6385   1.0000  24.7367 160.0000
   4.250   0.9258   0.01726   0.00651  -0.1019   0.6290   1.0000  25.3194 160.0000
   4.500   0.9531   0.01750   0.00658  -0.1017   0.6199   1.0000  25.8841 160.0000
   4.750   0.9771   0.01787   0.00684  -0.1010   0.6096   1.0000  26.5169 160.0000
   5.000   1.0059   0.01811   0.00683  -0.1009   0.6012   1.0000  27.0377 160.0000
   5.250   1.0288   0.01848   0.00712  -0.1000   0.5903   1.0000  27.7069 160.0000
   5.500   1.0543   0.01880   0.00727  -0.0995   0.5806   1.0000  28.3082 160.0000
   5.750   1.0814   0.01905   0.00729  -0.0992   0.5708   1.0000  28.9108 160.0000
   6.000   1.1040   0.01941   0.00754  -0.0982   0.5595   1.0000  29.6105 160.0000
   6.250   1.1295   0.01969   0.00759  -0.0976   0.5487   1.0000  30.2714 160.0000
   6.500   1.1564   0.01988   0.00748  -0.0972   0.5375   1.0000  30.9663 160.0000
   6.750   1.1781   0.02014   0.00758  -0.0960   0.5241   1.0000  31.7936 160.0000
   7.000   1.2005   0.02036   0.00756  -0.0948   0.5103   1.0000  32.6451 160.0000
   7.250   1.2229   0.02056   0.00748  -0.0936   0.4962   1.0000  33.5199 160.0000
   7.500   1.2451   0.02074   0.00738  -0.0924   0.4817   1.0000  34.4145 160.0000
   7.750   1.2666   0.02093   0.00726  -0.0911   0.4668   1.0000  35.3366 160.0000
   8.000   1.2871   0.02113   0.00715  -0.0896   0.4513   1.0000  36.2989 160.0000
   8.250   1.3061   0.02135   0.00705  -0.0879   0.4350   1.0000  37.3181 160.0000
   8.500   1.3235   0.02158   0.00697  -0.0859   0.4174   1.0000  38.4156 160.0000
   8.750   1.3393   0.02184   0.00688  -0.0837   0.3985   1.0000  39.6120 160.0000
   9.000   1.3536   0.02212   0.00675  -0.0813   0.3781   1.0000  40.9149 160.0000
   9.250   1.3647   0.02253   0.00677  -0.0785   0.3541   1.0000  42.4622 160.0000
   9.500   1.3729   0.02309   0.00678  -0.0752   0.3277   1.0000  44.1820 160.0000
   9.750   1.3762   0.02387   0.00695  -0.0713   0.2973   1.0000  46.1703 160.0000
  10.000   1.3741   0.02496   0.00733  -0.0668   0.2635   1.0000  48.4041 160.0000
  10.250   1.3682   0.02651   0.00802  -0.0623   0.2278   1.0000  50.7967 160.0000
  10.500   1.3596   0.02850   0.00907  -0.0580   0.1955   1.0000  52.9962 160.0000
  10.750   1.3516   0.03073   0.01039  -0.0542   0.1683   1.0000  54.8839 160.0000
  11.000   1.3454   0.03307   0.01186  -0.0509   0.1479   1.0000  56.3379 160.0000
  11.250   1.3410   0.03544   0.01339  -0.0482   0.1326   1.0000  57.4542 160.0000
  11.500   1.3382   0.03782   0.01493  -0.0458   0.1208   1.0000  58.3299 160.0000
  12.000   1.3395   0.04232   0.01788  -0.0419   0.1030   1.0000  59.7082 160.0000
  12.250   1.3433   0.04448   0.01920  -0.0401   0.0961   1.0000  60.2609 160.0000
  12.500   1.3484   0.04651   0.02052  -0.0387   0.0900   1.0000  60.7638 160.0000
  12.750   1.3571   0.04846   0.02161  -0.0371   0.0847   1.0000  61.2194 160.0000
  13.000   1.3642   0.05043   0.02294  -0.0358   0.0799   1.0000  61.6407 160.0000
  13.250   1.3809   0.05205   0.02346  -0.0345   0.0752   1.0000  62.0609 160.0000
  13.500   1.3874   0.05420   0.02510  -0.0332   0.0720   1.0000  62.3666 160.0000
  13.750   1.3964   0.05618   0.02639  -0.0321   0.0687   1.0000  62.6848 160.0000
  14.000   1.4196   0.05785   0.02681  -0.0311   0.0649   1.0000  63.0527 160.0000
  14.250   1.4220   0.06043   0.02892  -0.0299   0.0631   1.0000  63.2439 160.0000
  14.500   1.4267   0.06301   0.03090  -0.0289   0.0611   1.0000  63.4537 160.0000
  14.750   1.4305   0.06560   0.03285  -0.0280   0.0592   1.0000  63.6542 160.0000
  15.000   1.4438   0.06771   0.03396  -0.0272   0.0570   1.0000  63.8896 160.0000
  15.250   1.4487   0.07109   0.03634  -0.0264   0.0554   1.0000  64.0617 160.0000
  15.500   1.4365   0.07496   0.03989  -0.0257   0.0548   1.0000  64.1375 160.0000
  15.750   1.4238   0.07919   0.04382  -0.0254   0.0543   1.0000  64.2023 160.0000
  16.000   1.4093   0.08382   0.04824  -0.0255   0.0538   1.0000  64.2542 160.0000
  16.250   1.3923   0.08890   0.05327  -0.0261   0.0535   1.0000  64.2933 160.0000
  16.500   1.3728   0.09451   0.05909  -0.0274   0.0533   1.0000  64.3186 160.0000
  16.750   1.3508   0.10079   0.06592  -0.0294   0.0532   1.0000  64.3287 160.0000
  17.000   1.3261   0.10785   0.07402  -0.0324   0.0533   1.0000  64.3204 160.0000
  17.250   1.2986   0.11587   0.08372  -0.0364   0.0535   1.0000  64.2920 160.0000
  17.500   1.2685   0.12503   0.09545  -0.0417   0.0539   1.0000  64.2419 160.0000
  17.750   1.2357   0.13554   0.10967  -0.0483   0.0545   1.0000  64.1694 160.0000
  18.000   1.2021   0.14731   0.12647  -0.0562   0.0553   1.0000  64.0830 160.0000
  18.250   1.1736   0.15914   0.14408  -0.0638   0.0559   1.0000  64.0046 160.0000
  19.250   0.7355   0.21041   0.20003  -0.0718   0.1017   1.0000  59.8079 160.0000
  19.500   0.7618   0.21483   0.20026  -0.0698   0.0996   1.0000  59.9728 160.0000
  19.750   0.7479   0.21771   0.20742  -0.0725   0.0987   1.0000  60.0511 160.0000
  20.000   0.7324   0.21991   0.21560  -0.0760   0.0944   1.0000  60.3990 160.0000
