  
       XFOIL         Version 6.99
  
 Calculated polar for: NACA 4412                                       
  
 1 1 Reynolds number fixed          Mach number fixed         
  
 xtrf =   1.000 (top)        1.000 (bottom)  
 Mach =   0.000     Re =     0.240 e 6     Ncrit =   9.000
  
   alpha    CL        CD       CDp       CM     Top_Xtr  Bot_Xtr
  ------ -------- --------- --------- -------- -------- --------
 -20.000  -0.5738   0.23480   0.23097   0.0138   1.0000   0.0238
 -19.750  -0.5657   0.23156   0.22772   0.0112   1.0000   0.0245
 -19.500  -0.5608   0.22900   0.22518   0.0074   1.0000   0.0247
 -19.000  -0.5408   0.22180   0.21799   0.0054   1.0000   0.0252
 -18.750  -0.5315   0.21900   0.21519   0.0040   1.0000   0.0257
 -18.500  -0.5226   0.21614   0.21232   0.0024   1.0000   0.0264
 -18.250  -0.5141   0.21313   0.20932   0.0006   1.0000   0.0272
 -18.000  -0.5057   0.20997   0.20615  -0.0013   1.0000   0.0280
 -17.750  -0.4989   0.20665   0.20284  -0.0040   1.0000   0.0289
 -17.500  -0.4980   0.20422   0.20042  -0.0081   1.0000   0.0291
 -17.250  -0.4864   0.19982   0.19604  -0.0086   1.0000   0.0293
 -17.000  -0.4756   0.19653   0.19274  -0.0091   1.0000   0.0297
 -16.750  -0.4664   0.19361   0.18982  -0.0102   1.0000   0.0302
 -16.500  -0.4579   0.19067   0.18688  -0.0116   1.0000   0.0309
 -16.250  -0.4499   0.18761   0.18382  -0.0131   1.0000   0.0317
 -16.000  -0.4425   0.18440   0.18061  -0.0148   1.0000   0.0327
 -15.750  -0.4414   0.18119   0.17743  -0.0186   1.0000   0.0340
 -15.500  -0.4399   0.17767   0.17393  -0.0212   1.0000   0.0343
 -15.250  -0.4251   0.17387   0.17012  -0.0206   1.0000   0.0348
 -15.000  -0.4157   0.17095   0.16720  -0.0213   1.0000   0.0353
 -14.750  -0.4077   0.16799   0.16425  -0.0224   1.0000   0.0361
 -14.500  -0.4006   0.16491   0.16118  -0.0236   1.0000   0.0370
 -14.250  -0.3943   0.16167   0.15794  -0.0251   1.0000   0.0382
 -14.000  -0.3965   0.15828   0.15457  -0.0288   1.0000   0.0397
 -13.750  -0.4066   0.15529   0.15161  -0.0332   1.0000   0.0400
 -13.500  -0.3874   0.15064   0.14696  -0.0315   1.0000   0.0404
 -13.250  -0.3758   0.14762   0.14394  -0.0313   1.0000   0.0410
 -13.000  -0.3676   0.14478   0.14111  -0.0318   1.0000   0.0418
 -12.750  -0.3609   0.14187   0.13821  -0.0327   1.0000   0.0430
 -12.500  -0.3565   0.13866   0.13501  -0.0341   1.0000   0.0449
 -12.250  -0.3731   0.13494   0.13134  -0.0400   1.0000   0.0465
 -12.000  -0.3710   0.13048   0.12691  -0.0411   1.0000   0.0469
 -11.750  -0.3548   0.12748   0.12390  -0.0394   1.0000   0.0475
 -11.500  -0.3450   0.12479   0.12122  -0.0390   1.0000   0.0483
 -11.250  -0.3386   0.12206   0.11851  -0.0393   1.0000   0.0493
 -11.000  -0.3347   0.11917   0.11563  -0.0399   1.0000   0.0506
 -10.750  -0.3343   0.11601   0.11250  -0.0409   1.0000   0.0524
 -10.500  -0.3583   0.11168   0.10825  -0.0463   1.0000   0.0543
 -10.250  -0.3712   0.10764   0.10429  -0.0486   1.0000   0.0545
 -10.000  -0.3565   0.10463   0.10127  -0.0452   1.0000   0.0552
  -9.750  -0.3465   0.10296   0.09961  -0.0429   1.0000   0.0561
  -9.500  -0.3431   0.10116   0.09785  -0.0414   1.0000   0.0573
  -9.250  -0.3463   0.09910   0.09584  -0.0402   1.0000   0.0588
  -9.000  -0.3557   0.09690   0.09370  -0.0389   1.0000   0.0603
  -8.750  -0.3779   0.09454   0.09142  -0.0379   1.0000   0.0621
  -8.250  -0.4336   0.08288   0.07990  -0.0534   0.9937   0.0634
  -8.000  -0.4188   0.08116   0.07822  -0.0473   0.9926   0.0644
  -7.750  -0.3954   0.07883   0.07586  -0.0480   0.9890   0.0654
  -7.500  -0.3691   0.07476   0.07176  -0.0537   0.9849   0.0673
  -7.250  -0.3490   0.06792   0.06486  -0.0647   0.9771   0.0704
  -7.000  -0.3420   0.05052   0.04703  -0.0844   0.9668   0.0660
  -6.750  -0.3496   0.02428   0.01793  -0.0939   0.9587   0.0480
  -6.500  -0.3172   0.02330   0.01689  -0.0952   0.9535   0.0500
  -6.250  -0.2829   0.02220   0.01554  -0.0967   0.9484   0.0529
  -6.000  -0.2447   0.02055   0.01359  -0.0991   0.9457   0.0555
  -5.750  -0.2039   0.01961   0.01264  -0.1019   0.9438   0.0587
  -5.250  -0.1386   0.01784   0.01066  -0.1039   0.9332   0.0662
  -5.000  -0.1011   0.01719   0.00996  -0.1058   0.9300   0.0711
  -4.750  -0.0637   0.01628   0.00901  -0.1076   0.9275   0.0768
  -4.500  -0.0381   0.01587   0.00859  -0.1070   0.9189   0.0822
  -4.250  -0.0044   0.01514   0.00785  -0.1081   0.9144   0.0895
  -4.000   0.0281   0.01472   0.00736  -0.1087   0.9092   0.0977
  -3.750   0.0552   0.01416   0.00688  -0.1084   0.9008   0.1073
  -3.500   0.0879   0.01360   0.00633  -0.1091   0.8960   0.1193
  -3.250   0.1133   0.01324   0.00600  -0.1085   0.8863   0.1322
  -3.000   0.1444   0.01279   0.00558  -0.1088   0.8801   0.1491
  -2.750   0.1703   0.01248   0.00532  -0.1082   0.8697   0.1678
  -2.500   0.2001   0.01213   0.00498  -0.1083   0.8624   0.1915
  -2.250   0.2264   0.01183   0.00478  -0.1078   0.8515   0.2175
  -2.000   0.2538   0.01155   0.00458  -0.1076   0.8416   0.2482
  -1.750   0.2821   0.01125   0.00435  -0.1074   0.8320   0.2852
  -1.500   0.3083   0.01099   0.00421  -0.1070   0.8199   0.3282
  -1.250   0.3348   0.01064   0.00406  -0.1066   0.8087   0.3882
  -1.000   0.3600   0.01008   0.00396  -0.1060   0.7980   0.5223
  -0.750   0.3798   0.00946   0.00399  -0.1038   0.7852   0.7208
  -0.500   0.4066   0.00907   0.00402  -0.1022   0.7730   0.9183
  -0.250   0.4629   0.00900   0.00383  -0.1079   0.7606   1.0000
   0.000   0.4885   0.00907   0.00373  -0.1073   0.7477   1.0000
   0.250   0.5142   0.00915   0.00366  -0.1067   0.7345   1.0000
   0.500   0.5395   0.00925   0.00364  -0.1061   0.7206   1.0000
   0.750   0.5651   0.00936   0.00364  -0.1055   0.7070   1.0000
   1.000   0.5909   0.00949   0.00364  -0.1050   0.6940   1.0000
   1.250   0.6170   0.00963   0.00366  -0.1045   0.6816   1.0000
   1.500   0.6432   0.00978   0.00369  -0.1041   0.6696   1.0000
   1.750   0.6690   0.00993   0.00377  -0.1036   0.6570   1.0000
   2.000   0.6951   0.01010   0.00385  -0.1032   0.6454   1.0000
   2.250   0.7216   0.01029   0.00393  -0.1028   0.6350   1.0000
   2.500   0.7476   0.01046   0.00404  -0.1024   0.6238   1.0000
   2.750   0.7739   0.01065   0.00418  -0.1020   0.6135   1.0000
   3.000   0.8006   0.01086   0.00429  -0.1017   0.6043   1.0000
   3.250   0.8264   0.01103   0.00446  -0.1013   0.5940   1.0000
   3.500   0.8531   0.01126   0.00462  -0.1011   0.5853   1.0000
   3.750   0.8791   0.01145   0.00479  -0.1007   0.5757   1.0000
   4.000   0.9054   0.01167   0.00498  -0.1004   0.5671   1.0000
   4.250   0.9316   0.01188   0.00517  -0.1000   0.5581   1.0000
   4.500   0.9576   0.01210   0.00538  -0.0997   0.5493   1.0000
   4.750   0.9837   0.01233   0.00557  -0.0993   0.5407   1.0000
   5.000   1.0092   0.01255   0.00582  -0.0989   0.5315   1.0000
   5.250   1.0355   0.01281   0.00601  -0.0986   0.5229   1.0000
   5.500   1.0600   0.01300   0.00627  -0.0980   0.5128   1.0000
   5.750   1.0852   0.01324   0.00649  -0.0974   0.5031   1.0000
   6.000   1.1096   0.01345   0.00670  -0.0968   0.4920   1.0000
   6.250   1.1330   0.01364   0.00693  -0.0959   0.4798   1.0000
   6.500   1.1565   0.01387   0.00716  -0.0951   0.4677   1.0000
   6.750   1.1798   0.01411   0.00739  -0.0943   0.4556   1.0000
   7.000   1.2025   0.01434   0.00764  -0.0933   0.4429   1.0000
   7.250   1.2247   0.01457   0.00791  -0.0923   0.4294   1.0000
   7.500   1.2465   0.01482   0.00821  -0.0912   0.4153   1.0000
   7.750   1.2676   0.01509   0.00850  -0.0900   0.4000   1.0000
   8.000   1.2878   0.01538   0.00881  -0.0887   0.3833   1.0000
   8.250   1.3067   0.01574   0.00915  -0.0872   0.3646   1.0000
   8.500   1.3246   0.01615   0.00956  -0.0855   0.3431   1.0000
   8.750   1.3400   0.01668   0.01002  -0.0834   0.3182   1.0000
   9.000   1.3533   0.01733   0.01058  -0.0811   0.2899   1.0000
   9.250   1.3625   0.01812   0.01125  -0.0782   0.2590   1.0000
   9.500   1.3678   0.01912   0.01209  -0.0747   0.2261   1.0000
   9.750   1.3719   0.02032   0.01310  -0.0714   0.1909   1.0000
  10.000   1.3737   0.02174   0.01433  -0.0679   0.1578   1.0000
  10.250   1.3746   0.02329   0.01572  -0.0646   0.1304   1.0000
  10.500   1.3754   0.02495   0.01726  -0.0615   0.1106   1.0000
  10.750   1.3773   0.02662   0.01888  -0.0587   0.0963   1.0000
  11.000   1.3779   0.02846   0.02067  -0.0561   0.0863   1.0000
  11.250   1.3806   0.03023   0.02245  -0.0539   0.0784   1.0000
  11.500   1.3828   0.03213   0.02440  -0.0518   0.0724   1.0000
  11.750   1.3838   0.03420   0.02648  -0.0499   0.0676   1.0000
  12.000   1.3844   0.03640   0.02875  -0.0481   0.0636   1.0000
  12.250   1.3881   0.03841   0.03083  -0.0467   0.0599   1.0000
  12.500   1.3858   0.04101   0.03344  -0.0452   0.0571   1.0000
  12.750   1.3877   0.04332   0.03584  -0.0439   0.0545   1.0000
  13.000   1.3910   0.04554   0.03816  -0.0429   0.0520   1.0000
  13.250   1.3923   0.04798   0.04064  -0.0420   0.0499   1.0000
  13.500   1.3895   0.05078   0.04340  -0.0406   0.0479   1.0000
  13.750   1.3942   0.05304   0.04581  -0.0399   0.0462   1.0000
  14.000   1.3976   0.05541   0.04830  -0.0393   0.0444   1.0000
  14.250   1.4005   0.05787   0.05081  -0.0387   0.0428   1.0000
  14.500   1.4031   0.06030   0.05323  -0.0379   0.0415   1.0000
  14.750   1.4074   0.06246   0.05543  -0.0367   0.0401   1.0000
  15.000   1.4109   0.06498   0.05811  -0.0362   0.0390   1.0000
  15.250   1.4141   0.06755   0.06080  -0.0359   0.0378   1.0000
  15.500   1.4173   0.07013   0.06346  -0.0356   0.0366   1.0000
  15.750   1.4211   0.07259   0.06595  -0.0353   0.0355   1.0000
  16.000   1.4306   0.07406   0.06736  -0.0336   0.0342   1.0000
  16.250   1.4297   0.07732   0.07083  -0.0338   0.0336   1.0000
  16.500   1.4294   0.08053   0.07422  -0.0339   0.0330   1.0000
  16.750   1.4292   0.08376   0.07762  -0.0340   0.0323   1.0000
  17.000   1.4288   0.08703   0.08103  -0.0343   0.0316   1.0000
  17.250   1.4275   0.09044   0.08458  -0.0348   0.0309   1.0000
  17.500   1.4269   0.09375   0.08800  -0.0353   0.0303   1.0000
  17.750   1.4290   0.09661   0.09090  -0.0356   0.0297   1.0000
  18.000   1.4358   0.09864   0.09292  -0.0345   0.0288   1.0000
  18.250   1.4245   0.10382   0.09833  -0.0364   0.0286   1.0000
  18.500   1.4119   0.10938   0.10414  -0.0387   0.0283   1.0000
  18.750   1.3987   0.11521   0.11020  -0.0413   0.0281   1.0000
  19.000   1.3844   0.12144   0.11666  -0.0443   0.0279   1.0000
  19.250   1.3687   0.12813   0.12358  -0.0479   0.0277   1.0000
  19.500   1.3510   0.13550   0.13118  -0.0521   0.0276   1.0000
  19.750   1.3306   0.14376   0.13968  -0.0572   0.0276   1.0000
  20.000   1.3068   0.15320   0.14935  -0.0634   0.0276   1.0000
