  
       XFOIL         Version 6.99
  
 Calculated polar for: NACA 4412                                       
  
 1 1 Reynolds number fixed          Mach number fixed         
  
 xtrf =   1.000 (top)        1.000 (bottom)  
 Mach =   0.000     Re =     3.000 e 6     Ncrit =   9.000
  
   alpha    CL        CD       CDp       CM     Top_Xtr  Bot_Xtr
  ------ -------- --------- --------- -------- -------- --------
   0.000   0.4750   0.00595   0.00094  -0.1014   0.5249   0.2579
   0.250   0.5035   0.00595   0.00096  -0.1015   0.5156   0.2754
   0.500   0.5317   0.00596   0.00099  -0.1016   0.5051   0.2996
   0.750   0.5601   0.00594   0.00102  -0.1017   0.4959   0.3290
   1.000   0.5883   0.00591   0.00105  -0.1018   0.4877   0.3682
   1.250   0.6165   0.00583   0.00110  -0.1019   0.4797   0.4289
   1.500   0.6443   0.00570   0.00115  -0.1020   0.4718   0.5159
   1.750   0.6720   0.00551   0.00122  -0.1020   0.4646   0.6300
   2.000   0.6994   0.00539   0.00130  -0.1020   0.4563   0.7223
   2.250   0.7264   0.00528   0.00138  -0.1018   0.4468   0.8073
   2.500   0.7517   0.00516   0.00147  -0.1011   0.4375   0.8963
   2.750   0.7742   0.00515   0.00155  -0.0997   0.4262   0.9673
   3.000   0.8089   0.00524   0.00161  -0.1013   0.4146   0.9954
   3.250   0.8392   0.00534   0.00168  -0.1018   0.4052   1.0000
   3.500   0.8663   0.00549   0.00176  -0.1016   0.3919   1.0000
   3.750   0.8928   0.00568   0.00186  -0.1014   0.3715   1.0000
   4.000   0.9189   0.00590   0.00198  -0.1011   0.3509   1.0000
   4.250   0.9457   0.00607   0.00208  -0.1009   0.3362   1.0000
   4.500   0.9725   0.00625   0.00220  -0.1007   0.3220   1.0000
   4.750   0.9988   0.00646   0.00233  -0.1005   0.3055   1.0000
   5.000   1.0245   0.00672   0.00249  -0.1001   0.2847   1.0000
   5.250   1.0496   0.00702   0.00267  -0.0997   0.2605   1.0000
   5.500   1.0745   0.00734   0.00288  -0.0992   0.2371   1.0000
   5.750   1.0990   0.00769   0.00310  -0.0987   0.2128   1.0000
   6.000   1.1234   0.00803   0.00333  -0.0981   0.1892   1.0000
   6.250   1.1465   0.00848   0.00362  -0.0974   0.1595   1.0000
   6.500   1.1690   0.00897   0.00394  -0.0965   0.1300   1.0000
   6.750   1.1924   0.00937   0.00423  -0.0958   0.1101   1.0000
   8.000   1.3085   0.01126   0.00573  -0.0922   0.0470   1.0000
   7.000   1.2164   0.00972   0.00450  -0.0952   0.0955   1.0000
   7.250   1.2397   0.01010   0.00479  -0.0945   0.0800   1.0000
   7.500   1.2621   0.01055   0.00513  -0.0937   0.0638   1.0000
   7.750   1.2852   0.01092   0.00543  -0.0929   0.0538   1.0000
   8.000   1.3085   0.01126   0.00573  -0.0922   0.0470   1.0000
   8.250   1.3324   0.01155   0.00599  -0.0916   0.0430   1.0000
   8.500   1.3554   0.01188   0.00629  -0.0909   0.0386   1.0000
   8.750   1.3791   0.01215   0.00656  -0.0903   0.0367   1.0000
   9.000   1.4017   0.01249   0.00687  -0.0895   0.0341   1.0000
   9.250   1.4246   0.01278   0.00716  -0.0887   0.0323   1.0000
   9.500   1.4474   0.01306   0.00744  -0.0880   0.0313   1.0000
   9.750   1.4693   0.01338   0.00776  -0.0871   0.0299   1.0000
  10.000   1.4900   0.01375   0.00812  -0.0860   0.0280   1.0000
  10.250   1.5110   0.01407   0.00844  -0.0850   0.0271   1.0000
  10.500   1.5306   0.01436   0.00875  -0.0836   0.0265   1.0000
  10.750   1.5491   0.01471   0.00910  -0.0821   0.0255   1.0000
  11.000   1.5665   0.01511   0.00950  -0.0805   0.0244   1.0000
  11.250   1.5828   0.01558   0.00998  -0.0787   0.0229   1.0000
  11.500   1.6013   0.01594   0.01036  -0.0773   0.0225   1.0000
  11.750   1.6188   0.01636   0.01079  -0.0758   0.0217   1.0000
  12.000   1.6350   0.01685   0.01129  -0.0742   0.0207   1.0000
  12.250   1.6499   0.01743   0.01187  -0.0724   0.0193   1.0000
  12.500   1.6657   0.01797   0.01243  -0.0709   0.0187   1.0000
  12.750   1.6814   0.01852   0.01301  -0.0693   0.0180   1.0000
  13.000   1.6954   0.01919   0.01368  -0.0676   0.0171   1.0000
  13.250   1.7079   0.01995   0.01446  -0.0658   0.0160   1.0000
  13.500   1.7216   0.02068   0.01521  -0.0642   0.0154   1.0000
  13.750   1.7346   0.02146   0.01602  -0.0626   0.0147   1.0000
  14.000   1.7460   0.02236   0.01694  -0.0609   0.0140   1.0000
  14.250   1.7560   0.02340   0.01800  -0.0592   0.0131   1.0000
  14.500   1.7667   0.02442   0.01906  -0.0576   0.0126   1.0000
  14.750   1.7776   0.02546   0.02013  -0.0561   0.0123   1.0000
  15.000   1.7872   0.02663   0.02134  -0.0546   0.0119   1.0000
  15.250   1.7954   0.02795   0.02269  -0.0532   0.0114   1.0000
  15.500   1.8021   0.02941   0.02419  -0.0517   0.0109   1.0000
  15.750   1.8072   0.03107   0.02590  -0.0502   0.0104   1.0000
  16.000   1.8142   0.03262   0.02750  -0.0490   0.0101   1.0000
  16.250   1.8211   0.03424   0.02917  -0.0479   0.0100   1.0000
  16.500   1.8266   0.03601   0.03099  -0.0469   0.0098   1.0000
  16.750   1.8312   0.03795   0.03298  -0.0460   0.0095   1.0000
  17.000   1.8345   0.04007   0.03515  -0.0451   0.0093   1.0000
  17.250   1.8366   0.04239   0.03752  -0.0444   0.0090   1.0000
  17.500   1.8370   0.04492   0.04011  -0.0437   0.0087   1.0000
  17.750   1.8355   0.04774   0.04299  -0.0431   0.0084   1.0000
  18.000   1.8328   0.05080   0.04612  -0.0427   0.0081   1.0000
  18.250   1.8334   0.05353   0.04892  -0.0425   0.0080   1.0000
  18.500   1.8334   0.05638   0.05184  -0.0424   0.0079   1.0000
  18.750   1.8316   0.05948   0.05501  -0.0423   0.0078   1.0000
  19.000   1.8288   0.06278   0.05837  -0.0424   0.0077   1.0000
  19.250   1.8248   0.06627   0.06193  -0.0427   0.0076   1.0000
  19.500   1.8197   0.06995   0.06569  -0.0430   0.0075   1.0000
  19.750   1.8134   0.07380   0.06961  -0.0435   0.0074   1.0000
  20.000   1.8060   0.07786   0.07375  -0.0440   0.0073   1.0000
